
              Welcome to ANSYS Fluent 2021 R2

              Copyright 1987-2021 ANSYS, Inc. All Rights Reserved.
              Unauthorized use, distribution or duplication is prohibited.
              This product is subject to U.S. laws governing export and re-export.
              For full Legal Notice, see documentation.

Build Time: May 28 2021 13:54:23 EDT  Build Id: 10201  
 
Host spawning Node 0 on machine "PS2019FGRGYSDY" (win64).

-------------------------------------------------------------------------------
ID    Hostname        Core  O.S.         PID    Vendor                         
-------------------------------------------------------------------------------
n8    PS2019FGRGYSDY  9/8  Windows-x64  4168   Intel(R) Core(TM) i7-9700      
n7    PS2019FGRGYSDY  8/8  Windows-x64  6372   Intel(R) Core(TM) i7-9700      
n6    PS2019FGRGYSDY  7/8  Windows-x64  2848   Intel(R) Core(TM) i7-9700      
n5    PS2019FGRGYSDY  6/8  Windows-x64  5472   Intel(R) Core(TM) i7-9700      
n4    PS2019FGRGYSDY  5/8  Windows-x64  12148  Intel(R) Core(TM) i7-9700      
n3    PS2019FGRGYSDY  4/8  Windows-x64  10236  Intel(R) Core(TM) i7-9700      
n2    PS2019FGRGYSDY  3/8  Windows-x64  11164  Intel(R) Core(TM) i7-9700      
n1    PS2019FGRGYSDY  2/8  Windows-x64  10572  Intel(R) Core(TM) i7-9700      
n0*   PS2019FGRGYSDY  1/8  Windows-x64  2292   Intel(R) Core(TM) i7-9700      
host  PS2019FGRGYSDY       Windows-x64  10200  Intel(R) Core(TM) i7-9700      

MPI Option Selected: intel
Selected system interconnect: default
-------------------------------------------------------------------------------

Cleanup script file is D:\\icem\\chongxin\\zuixin\\cleanup-fluent-PS2019FGRGYSDY-10200.bat

Reading journal file D:\icem\chongxin\zuixin\_read_fluent_case_.jou...

> ;Journal file automatically created by Fluent!
/file read-case D:/icem/chongxin/zuixin/fluent.msh

Reading "D:/icem/chongxin/zuixin/fluent.msh"...

Buffering for file scan...

   20959 nodes.
     785 triangular cells, zone 17.
     743 triangular cells, zone 18.
   31326 triangular cells, zone 19.
    2646 triangular cells, zone 20.
     497 triangular cells, zone 21.
     605 triangular cells, zone 22.
    1146 2D interior faces, zone 23.
    1083 2D interior faces, zone 24.
   43078 2D interior faces, zone 25.
    3915 2D interior faces, zone 26.
     710 2D interior faces, zone 27.
     868 2D interior faces, zone 28.
      59 2D wall faces, zone 29.
      59 2D wall faces, zone 30.
     105 2D wall faces, zone 31.
      49 2D wall faces, zone 32.
      53 2D wall faces, zone 33.
    3598 2D wall faces, zone 34.
    4173 2D wall faces, zone 35.
      55 2D interior faces, zone 36.

Building...
     mesh
	auto partitioning mesh by Metis (fast),
	distributing mesh
		parts.........,
      wall -> wall (34) and wall:002 (2)
      wall -> wall (34) and wall:003 (3)
      int_interior -> int_interior (36) and int_interior:004 (4)
      int_interior -> int_interior (36) and int_interior:005 (5)
      int_interior -> int_interior (36) and int_interior:006 (6)
      int_interior -> int_interior (36) and int_interior:007 (7)
      int_interior -> int_interior (36) and int_interior:008 (8)
		faces.........,
Note: Separating wall zone 34 into zones 34 and 2. 
Note: Separating wall zone 34 into zones 34 and 3. 
Note: Separating interior zone 36 into zones 36 and 4. 
Note: Separating interior zone 36 into zones 36 and 5. 
Note: Separating interior zone 36 into zones 36 and 6. 
Note: Separating interior zone 36 into zones 36 and 7. 
Note: Separating interior zone 36 into zones 36 and 8. 
		nodes.........,
		cells.........,
        bandwidth reduction using Reverse Cuthill-McKee: 3929/49 = 80.1837
     materials,
     interface,
     domains,
     zones,
	int_interior:008
	int_interior:007
	int_interior:006
	int_interior:005
	int_interior:004
	wall:003
	wall:002
	int_interior
	tri
	wall
	outdown
	outup
	outone
	bufferin
	bloodin
	int_suroutdown
	int_suroutup
	int_suroutone
	int_surflu
	int_surbuffer
	int_surblood
	suroutdown
	suroutup
	suroutone
	surflu
	surbuffer
	surblood
     parallel,
Done.

Preparing mesh for display...
Done.

> 
adjoint/                mesh/                   report/
define/                 parallel/               server/
display/                plot/                   solve/
exit                    preferences/            surface/
file/                   print-license-usage     views/

> 
adjoint/                mesh/                   report/
define/                 parallel/               server/
display/                plot/                   solve/
exit                    preferences/            surface/
file/                   print-license-usage     views/

> 
> (cx-gui-do cx-activate-item "ToolBar*View*autoscale")
(cx-use-window-id 51)
(cx-use-window-id 51)
(cx-gui-do cx-activate-item "General*Table1*ButtonBox1(Mesh)*PushButton1(Scale)")
(cx-gui-do cx-set-list-selections "Scale Mesh*Table1*DropDownList3(View Length Unit In)" '( 2))
(cx-gui-do cx-activate-item "Scale Mesh*Table1*DropDownList3(View Length Unit In)")
(cx-gui-do cx-set-list-selections "Scale Mesh*Table1*Table2(Scaling)*DropDownList2(Mesh Was Created In)" '( 3))
(cx-gui-do cx-activate-item "Scale Mesh*Table1*Table2(Scaling)*DropDownList2(Mesh Was Created In)")
(cx-gui-do cx-activate-item "Scale Mesh*PanelButtons*PushButton1(Close)")
(cx-gui-do cx-set-list-tree-selections "NavigationPane*List_Tree1" (list "Setup|Models|Energy (Off)"))
(cx-gui-do cx-list-tree-right-click "NavigationPane*List_Tree1" )
(cx-gui-do cx-activate-item "MenuBar*PopupMenuTree-Energy (Off)*On")
(cx-gui-do cx-set-list-tree-selections "NavigationPane*List_Tree1" (list "Setup|Models|Viscous (SST k-omega)"))
(cx-gui-do cx-list-tree-right-click "NavigationPane*List_Tree1" )
(cx-gui-do cx-activate-item "MenuBar*PopupMenuTree-Viscous (SST k-omega)*Edit...")
(cx-gui-do cx-set-toggle-button2 "Viscous Model*Table1*ToggleBox1(Model)*k-epsilon (2 eqn)" #t)
(cx-gui-do cx-activate-item "Viscous Model*Table1*ToggleBox1(Model)*k-epsilon (2 eqn)")
(cx-gui-do cx-set-toggle-button2 "Viscous Model*Table1*ToggleBox6(k-epsilon Model)*Realizable" #t)
(cx-gui-do cx-activate-item "Viscous Model*Table1*ToggleBox6(k-epsilon Model)*Realizable")
(cx-gui-do cx-activate-item "Viscous Model*PanelButtons*PushButton1(OK)")

Adjusting the following setting:
Changing Discretization Scheme for Turbulent Kinetic Energy:   from: Second Order Upwind   to: First Order Upwind
(cx-gui-do cx-set-list-tree-selections "NavigationPane*List_Tree1" (list "Setup|Models|Viscous (Realizable k-e, Standard Wall Fn)"))
(cx-gui-do cx-set-list-tree-selections "NavigationPane*List_Tree1" (list "Setup|Materials|Fluid"))
(cx-gui-do cx-list-tree-right-click "NavigationPane*List_Tree1" )
(cx-gui-do cx-set-list-tree-selections "NavigationPane*List_Tree1" (list "Setup|Materials|Fluid"))
(cx-gui-do cx-list-tree-right-click "NavigationPane*List_Tree1" )
(cx-gui-do cx-activate-item "MenuBar*PopupMenuTree-Fluid*New...")
(cx-gui-do cx-set-text-entry "Create/Edit Materials*Table1*Frame1*Table1*TextEntry1(Name)" "plasma")
(cx-gui-do cx-set-real-entry-list "Create/Edit Materials*RealEntry10" '( 1.028))
(cx-gui-do cx-set-real-entry-list "Create/Edit Materials*RealEntry16" '( 0.003))
(cx-gui-do cx-activate-item "Create/Edit Materials*PanelButtons*PushButton3(Change/Create)")
(cx-gui-do cx-activate-item "Question*OK")
(cx-gui-do cx-set-text-entry "Create/Edit Materials*Table1*Frame1*Table1*TextEntry1(Name)" "platelet")
(cx-gui-do cx-set-real-entry-list "Create/Edit Materials*RealEntry10" '( 1.04))
(cx-gui-do cx-activate-item "Create/Edit Materials*PanelButtons*PushButton3(Change/Create)")
(cx-gui-do cx-activate-item "Question*Cancel")
(cx-gui-do cx-set-text-entry "Create/Edit Materials*Table1*Frame1*Table1*TextEntry1(Name)" "rbc")
(cx-gui-do cx-set-real-entry-list "Create/Edit Materials*RealEntry10" '( 1.09))
(cx-gui-do cx-activate-item "Create/Edit Materials*PanelButtons*PushButton3(Change/Create)")
(cx-gui-do cx-activate-item "Question*Cancel")
(cx-gui-do cx-set-text-entry "Create/Edit Materials*Table1*Frame1*Table1*TextEntry1(Name)" "wbc")
(cx-gui-do cx-set-real-entry-list "Create/Edit Materials*RealEntry10" '( 1.055))
(cx-gui-do cx-activate-item "Create/Edit Materials*PanelButtons*PushButton3(Change/Create)")
(cx-gui-do cx-activate-item "Question*Cancel")
(cx-gui-do cx-activate-item "Create/Edit Materials*Table1*Frame1*Frame2*ButtonBox2*PushButton1(Fluent Database)")
(cx-gui-do cx-set-list-selections "Fluent Database Materials*Table1*Frame1*List1(Materials)" '( 562))
(cx-gui-do cx-activate-item "Fluent Database Materials*Table1*Frame1*List1(Materials)")
(cx-gui-do cx-activate-item "Fluent Database Materials*PanelButtons*PushButton6(Copy)")
(cx-gui-do cx-activate-item "Fluent Database Materials*PanelButtons*PushButton1(Close)")
(cx-gui-do cx-activate-item "Create/Edit Materials*PanelButtons*PushButton1(Close)")
(cx-gui-do cx-set-list-tree-selections "NavigationPane*List_Tree1" (list "Setup|Models|Species (Off)"))
(cx-gui-do cx-set-list-tree-selections "NavigationPane*List_Tree1" (list "Setup|Models|Species (Off)"))
(cx-gui-do cx-activate-item "NavigationPane*List_Tree1")
(cx-gui-do cx-set-list-tree-selections "NavigationPane*List_Tree1" (list "Setup|Models|Species (Off)"))
(cx-gui-do cx-activate-tab-index "Species Model*Table2*Frame3" 0)
(cx-gui-do cx-activate-tab-index "Species Model*Table2*Frame3" 1)
(cx-gui-do cx-activate-tab-index "Species Model*Table2*Frame3" 0)
(cx-gui-do cx-activate-tab-index "Species Model*Table2*Frame3" 2)
(cx-gui-do cx-activate-tab-index "Species Model*Table2*Frame3" 0)
(cx-gui-do cx-activate-tab-index "Species Model*Table2*Frame4(PDF Table Creation)" 0)
(cx-gui-do cx-activate-tab-index "Species Model*Table2*Frame4(PDF Table Creation)" 1)
(cx-gui-do cx-activate-tab-index "Species Model*Table2*Frame4(PDF Table Creation)" 0)
(cx-gui-do cx-activate-tab-index "Species Model*Table2*Frame4(PDF Table Creation)" 2)
(cx-gui-do cx-activate-tab-index "Species Model*Table2*Frame4(PDF Table Creation)" 0)
(cx-gui-do cx-activate-tab-index "Species Model*Table2*Frame4(PDF Table Creation)" 3)
(cx-gui-do cx-activate-tab-index "Species Model*Table2*Frame4(PDF Table Creation)" 0)
(cx-gui-do cx-activate-tab-index "Species Model*Table2*Frame4(PDF Table Creation)" 4)
(cx-gui-do cx-activate-tab-index "Species Model*Table2*Frame4(PDF Table Creation)" 0)
(cx-gui-do cx-activate-tab-index "Species Model*Table2*Frame4(PDF Table Creation)" 5)
(cx-gui-do cx-activate-tab-index "Species Model*Table2*Frame4(PDF Table Creation)" 0)
(cx-gui-do cx-activate-tab-index "Species Model*Table2*Frame4(PDF Table Creation)" 6)
(cx-gui-do cx-activate-tab-index "Species Model*Table2*Frame4(PDF Table Creation)" 0)
(cx-gui-do cx-set-toggle-button2 "Species Model*Table1*ToggleBox1(Model)*Species Transport" #t)
(cx-gui-do cx-activate-item "Species Model*Table1*ToggleBox1(Model)*Species Transport")
(cx-gui-do cx-activate-item "Species Model*Table2*Table1(Mixture Properties)*PushButton1(Import CHEMKIN Mechanism)")

Adjusting the following setting:
Density explicit underrelaxation factor: from:     1   to:  0.25
(cx-gui-do cx-activate-item "Import CHEMKIN Format Mechanism*PanelButtons*PushButton2(Cancel)")
(cx-gui-do cx-activate-item "Species Model*Table2*Table1(Mixture Properties)*PushButton3(View)")
(cx-gui-do cx-activate-item "Edit Material*PushButton3(Edit)")
(cx-gui-do cx-set-list-selections "Species*Table2*Frame2*List1(Selected Species)" '( 1))
(cx-gui-do cx-activate-item "Species*Table2*Frame2*List1(Selected Species)")
(cx-gui-do cx-activate-item "Species*Table2*Frame2*ButtonBox2*PushButton2(Remove)")
(cx-gui-do cx-set-list-selections "Species*Table2*Frame2*List1(Selected Species)" '( 1))
(cx-gui-do cx-activate-item "Species*Table2*Frame2*List1(Selected Species)")
(cx-gui-do cx-activate-item "Species*Table2*Frame2*ButtonBox2*PushButton2(Remove)")
(cx-gui-do cx-set-list-selections "Species*Table2*List1(Available Materials)" '( 1))
(cx-gui-do cx-activate-item "Species*Table2*List1(Available Materials)")
(cx-gui-do cx-activate-item "Species*Table2*Frame2*ButtonBox2*PushButton1(Add)")
(cx-gui-do cx-set-list-selections "Species*Table2*List1(Available Materials)" '( 1))
(cx-gui-do cx-activate-item "Species*Table2*List1(Available Materials)")
(cx-gui-do cx-activate-item "Species*Table2*Frame2*ButtonBox2*PushButton1(Add)")
(cx-gui-do cx-set-list-selections "Species*Table2*List1(Available Materials)" '( 1))
(cx-gui-do cx-activate-item "Species*Table2*List1(Available Materials)")
(cx-gui-do cx-activate-item "Species*Table2*Frame2*ButtonBox2*PushButton1(Add)")
(cx-gui-do cx-set-list-selections "Species*Table2*List1(Available Materials)" '( 1))
(cx-gui-do cx-activate-item "Species*Table2*List1(Available Materials)")
(cx-gui-do cx-activate-item "Species*Table2*Frame2*ButtonBox2*PushButton1(Add)")
(cx-gui-do cx-set-list-selections "Species*Table2*List1(Available Materials)" '( 0))
(cx-gui-do cx-activate-item "Species*Table2*List1(Available Materials)")
(cx-gui-do cx-activate-item "Species*Table2*Frame2*ButtonBox2*PushButton1(Add)")
(cx-gui-do cx-set-list-selections "Species*Table2*Frame2*List1(Selected Species)" '( 0))
(cx-gui-do cx-activate-item "Species*Table2*Frame2*List1(Selected Species)")
(cx-gui-do cx-activate-item "Species*Table2*Frame2*ButtonBox2*PushButton2(Remove)")
(cx-gui-do cx-activate-item "Species*PanelButtons*PushButton2(Cancel)")
(cx-gui-do cx-activate-item "Edit Material*PanelButtons*PushButton1(Close)")
(cx-gui-do cx-activate-item "Species Model*PanelButtons*PushButton1(OK)")
(cx-gui-do cx-set-list-tree-selections "NavigationPane*List_Tree1" (list "Setup|Materials|Fluid|nitrogen"))
(cx-gui-do cx-list-tree-right-click "NavigationPane*List_Tree1" )
(cx-gui-do cx-set-list-tree-selections "NavigationPane*List_Tree1" (list "Setup|Materials|Fluid|nitrogen"))
(cx-gui-do cx-activate-item "NavigationPane*List_Tree1")
(cx-gui-do cx-set-list-tree-selections "NavigationPane*List_Tree1" (list "Setup|Materials|Fluid|nitrogen"))
(cx-gui-do cx-list-tree-right-click "NavigationPane*List_Tree1" )
(cx-gui-do cx-activate-item "Create/Edit Materials*PanelButtons*PushButton1(Close)")
(cx-gui-do cx-set-list-tree-selections "NavigationPane*List_Tree1" (list "Setup|Materials|Fluid|nitrogen"))
(cx-gui-do cx-list-tree-right-click "NavigationPane*List_Tree1" )
(cx-gui-do cx-activate-item "MenuBar*PopupMenuTree-nitrogen*Delete")
(cx-gui-do cx-activate-item "Question*OK")
(cx-gui-do cx-set-list-tree-selections "NavigationPane*List_Tree1" (list "Setup|Materials|Fluid|oxygen"))
(cx-gui-do cx-list-tree-right-click "NavigationPane*List_Tree1" )
(cx-gui-do cx-set-list-tree-selections "NavigationPane*List_Tree1" (list "Setup|Materials|Fluid|oxygen"))
(cx-gui-do cx-list-tree-right-click "NavigationPane*List_Tree1" )
(cx-gui-do cx-set-list-tree-selections "NavigationPane*List_Tree1" (list "Setup|Materials|Fluid|oxygen"))
(cx-gui-do cx-list-tree-right-click "NavigationPane*List_Tree1" )
(cx-gui-do cx-set-list-tree-selections "NavigationPane*List_Tree1" (list "Setup|Materials|Fluid|oxygen"))
(cx-gui-do cx-list-tree-right-click "NavigationPane*List_Tree1" )
(cx-gui-do cx-activate-item "MenuBar*PopupMenuTree-oxygen*Delete")
(cx-gui-do cx-activate-item "Question*OK")
(cx-gui-do cx-set-list-tree-selections "NavigationPane*List_Tree1" (list "Setup|Materials|Fluid|water-vapor"))
(cx-gui-do cx-list-tree-right-click "NavigationPane*List_Tree1" )
(cx-gui-do cx-set-list-tree-selections "NavigationPane*List_Tree1" (list "Setup|Materials|Fluid|water-vapor"))
(cx-gui-do cx-list-tree-right-click "NavigationPane*List_Tree1" )
(cx-gui-do cx-activate-item "MenuBar*PopupMenuTree-water-vapor*Delete")
(cx-gui-do cx-activate-item "Question*OK")
(cx-gui-do cx-set-list-tree-selections "NavigationPane*List_Tree1" (list "Setup|Materials|Fluid|water-liquid"))
(cx-gui-do cx-set-list-tree-selections "NavigationPane*List_Tree1" (list "Setup|Models|Discrete Phase (Off)"))
(cx-gui-do cx-list-tree-right-click "NavigationPane*List_Tree1" )
(cx-gui-do cx-activate-item "MenuBar*PopupMenuTree-Discrete Phase (Off)*Edit...")
(cx-gui-do cx-activate-tab-index "Discrete Phase Model*Frame2" 0)
(cx-gui-do cx-activate-tab-index "Discrete Phase Model*Frame2" 1)
(cx-gui-do cx-activate-tab-index "Discrete Phase Model*Frame2" 0)
(cx-gui-do cx-activate-tab-index "Discrete Phase Model*Frame2" 2)
(cx-gui-do cx-activate-tab-index "Discrete Phase Model*Frame2" 0)
(cx-gui-do cx-activate-tab-index "Discrete Phase Model*Frame2" 3)
(cx-gui-do cx-activate-tab-index "Discrete Phase Model*Frame2" 0)
(cx-gui-do cx-activate-tab-index "Discrete Phase Model*Frame2" 4)
(cx-gui-do cx-activate-tab-index "Discrete Phase Model*Frame2" 0)
(cx-gui-do cx-activate-item "Discrete Phase Model*PanelButtons*PushButton5(Injections)")
(cx-gui-do cx-activate-item "Injections*ButtonBox6*PushButton1(Create)")
(cx-gui-do cx-activate-tab-index "Set Injection Properties*Frame4*Frame1" 0)
(cx-gui-do cx-activate-tab-index "Set Injection Properties*Frame4*Frame1" 1)
(cx-gui-do cx-activate-tab-index "Set Injection Properties*Frame4*Frame1" 0)
(cx-gui-do cx-activate-tab-index "Set Injection Properties*Frame4*Frame1" 2)
(cx-gui-do cx-activate-tab-index "Set Injection Properties*Frame4*Frame1" 0)
(cx-gui-do cx-activate-tab-index "Set Injection Properties*Frame4*Frame1" 3)
(cx-gui-do cx-activate-tab-index "Set Injection Properties*Frame4*Frame1" 0)
(cx-gui-do cx-activate-tab-index "Set Injection Properties*Frame4*Frame1" 4)
(cx-gui-do cx-activate-tab-index "Set Injection Properties*Frame4*Frame1" 0)
(cx-gui-do cx-activate-tab-index "Set Injection Properties*Frame4*Frame1" 5)
(cx-gui-do cx-activate-tab-index "Set Injection Properties*Frame4*Frame1" 0)
(cx-gui-do cx-activate-tab-index "Set Injection Properties*Frame4*Frame1" 6)
(cx-gui-do cx-activate-tab-index "Set Injection Properties*Frame4*Frame1" 0)
(cx-gui-do cx-activate-tab-index "Set Injection Properties*Frame4*Frame1" 7)
(cx-gui-do cx-activate-tab-index "Set Injection Properties*Frame4*Frame1" 0)
(cx-gui-do cx-set-list-selections "Set Injection Properties*Table1*DropDownList2(Injection Type)" '( 2))
(cx-gui-do cx-activate-item "Set Injection Properties*Table1*DropDownList2(Injection Type)")
(cx-gui-do cx-set-toggle-button2 "Set Injection Properties*Frame4*Frame1*Frame1(Point Properties)*Frame2*Table2*Table2(Surface Options)*CheckButton2(Inject Using Face Normal Direction)" #t)
(cx-gui-do cx-activate-item "Set Injection Properties*Frame4*Frame1*Frame1(Point Properties)*Frame2*Table2*Table2(Surface Options)*CheckButton2(Inject Using Face Normal Direction)")
(cx-gui-do cx-set-toggle-button2 "Set Injection Properties*Frame4*Frame1*Frame1(Point Properties)*Frame2*Table2*Table2(Surface Options)*CheckButton2(Inject Using Face Normal Direction)" #f)
(cx-gui-do cx-activate-item "Set Injection Properties*Frame4*Frame1*Frame1(Point Properties)*Frame2*Table2*Table2(Surface Options)*CheckButton2(Inject Using Face Normal Direction)")
(cx-gui-do cx-set-toggle-button2 "Set Injection Properties*Frame4*Frame1*Frame1(Point Properties)*Frame2*Table2*Table2(Surface Options)*CheckButton1(Scale Flow Rate by Face Area)" #t)
(cx-gui-do cx-activate-item "Set Injection Properties*Frame4*Frame1*Frame1(Point Properties)*Frame2*Table2*Table2(Surface Options)*CheckButton1(Scale Flow Rate by Face Area)")
(cx-gui-do cx-set-list-selections "Set Injection Properties*Table1*List4(Injection Surfaces)" '( 0))
(cx-gui-do cx-activate-item "Set Injection Properties*Table1*List4(Injection Surfaces)")
(cx-gui-do cx-set-list-selections "Set Injection Properties*Frame3*DropDownList2(Diameter Distribution)" '( 1))
(cx-gui-do cx-activate-item "Set Injection Properties*Frame3*DropDownList2(Diameter Distribution)")
(cx-gui-do cx-set-expression-entry "Set Injection Properties*Frame4*Frame1*Frame1(Point Properties)*Frame2*Frame1*Table1*ExpressionEntry78" '("0.001" . 0))
(cx-gui-do cx-set-expression-entry "Set Injection Properties*Frame4*Frame1*Frame1(Point Properties)*Frame2*Frame1*Table1*ExpressionEntry360" '("0.05" . 0))
(cx-gui-do cx-set-expression-entry "Set Injection Properties*Frame4*Frame1*Frame1(Point Properties)*Frame2*Frame1*Table1*ExpressionEntry384" '("2e-5" . 0))
(cx-gui-do cx-set-expression-entry "Set Injection Properties*Frame4*Frame1*Frame1(Point Properties)*Frame2*Frame1*Table1*ExpressionEntry390" '("7e-6" . 0))
(cx-gui-do cx-activate-tab-index "Set Injection Properties*Frame4*Frame1" 2)
(cx-gui-do cx-set-toggle-button2 "Set Injection Properties*Frame4*Frame1*Frame3(Turbulent Dispersion)*Frame1(Stochastic Tracking)*CheckButton1(Discrete Random Walk Model)" #t)
(cx-gui-do cx-activate-item "Set Injection Properties*Frame4*Frame1*Frame3(Turbulent Dispersion)*Frame1(Stochastic Tracking)*CheckButton1(Discrete Random Walk Model)")
(cx-gui-do cx-activate-item "Set Injection Properties*PanelButtons*PushButton1(OK)")
(cx-gui-do cx-activate-item "Injections*ButtonBox6*PushButton1(Create)")
(cx-gui-do cx-set-list-selections "Set Injection Properties*Table1*DropDownList2(Injection Type)" '( 2))
(cx-gui-do cx-activate-item "Set Injection Properties*Table1*DropDownList2(Injection Type)")
(cx-gui-do cx-set-list-selections "Set Injection Properties*Table1*List4(Injection Surfaces)" '( 1))
(cx-gui-do cx-activate-item "Set Injection Properties*Table1*List4(Injection Surfaces)")
(cx-gui-do cx-set-toggle-button2 "Set Injection Properties*Frame2*Frame1*ToggleBox1(Particle Type)*Multicomponent" #t)
(cx-gui-do cx-activate-item "Set Injection Properties*Frame2*Frame1*ToggleBox1(Particle Type)*Multicomponent")
(cx-gui-do cx-set-list-selections "Set Injection Properties*Frame3*DropDownList2(Diameter Distribution)" '( 1))
(cx-gui-do cx-activate-item "Set Injection Properties*Frame3*DropDownList2(Diameter Distribution)")
(cx-gui-do cx-activate-tab-index "Set Injection Properties*Frame4*Frame1" 0)
(cx-gui-do cx-activate-tab-index "Set Injection Properties*Frame4*Frame1" 2)
(cx-gui-do cx-set-toggle-button2 "Set Injection Properties*Frame4*Frame1*Frame3(Turbulent Dispersion)*Frame1(Stochastic Tracking)*CheckButton1(Discrete Random Walk Model)" #t)
(cx-gui-do cx-activate-item "Set Injection Properties*Frame4*Frame1*Frame3(Turbulent Dispersion)*Frame1(Stochastic Tracking)*CheckButton1(Discrete Random Walk Model)")
(cx-gui-do cx-activate-tab-index "Set Injection Properties*Frame4*Frame1" 0)
(cx-gui-do cx-set-toggle-button2 "Set Injection Properties*Frame4*Frame1*Frame1(Point Properties)*Frame2*Table2*Table2(Surface Options)*CheckButton1(Scale Flow Rate by Face Area)" #t)
(cx-gui-do cx-activate-item "Set Injection Properties*Frame4*Frame1*Frame1(Point Properties)*Frame2*Table2*Table2(Surface Options)*CheckButton1(Scale Flow Rate by Face Area)")
(cx-gui-do cx-set-expression-entry "Set Injection Properties*Frame4*Frame1*Frame1(Point Properties)*Frame2*Frame1*Table1*ExpressionEntry78" '("0.001" . 0))
(cx-gui-do cx-set-expression-entry "Set Injection Properties*Frame4*Frame1*Frame1(Point Properties)*Frame2*Frame1*Table1*ExpressionEntry360" '("0.05" . 0))
(cx-gui-do cx-set-expression-entry "Set Injection Properties*Frame4*Frame1*Frame1(Point Properties)*Frame2*Frame1*Table1*ExpressionEntry384" '("3e-6" . 0))
(cx-gui-do cx-set-expression-entry "Set Injection Properties*Frame4*Frame1*Frame1(Point Properties)*Frame2*Frame1*Table1*ExpressionEntry390" '("2e-6" . 0))
(cx-gui-do cx-activate-item "Set Injection Properties*PanelButtons*PushButton1(OK)")
(cx-gui-do cx-activate-item "Injections*PanelButtons*PushButton2(Cancel)")
(cx-gui-do cx-activate-item "Discrete Phase Model*PanelButtons*PushButton1(OK)")
(cx-gui-do cx-set-list-tree-selections "NavigationPane*List_Tree1" (list "Setup|Models|Discrete Phase (On)"))
(cx-gui-do cx-set-list-tree-selections "NavigationPane*List_Tree1" (list "Setup|Boundary Conditions|Wall|bloodin (wall, id=29)"))
(cx-gui-do cx-list-tree-right-click "NavigationPane*List_Tree1" )
(cx-gui-do cx-activate-item "MenuBar*TypeSubMenu*velocity-inlet")
(cx-gui-do cx-activate-tab-index "Velocity Inlet*Frame2*Frame2" 0)
(cx-gui-do cx-activate-tab-index "Velocity Inlet*Frame2*Frame2" 1)
(cx-gui-do cx-activate-tab-index "Velocity Inlet*Frame2*Frame2" 0)
(cx-gui-do cx-activate-tab-index "Velocity Inlet*Frame2*Frame2" 2)
(cx-gui-do cx-activate-tab-index "Velocity Inlet*Frame2*Frame2" 0)
(cx-gui-do cx-activate-tab-index "Velocity Inlet*Frame2*Frame2" 3)
(cx-gui-do cx-activate-tab-index "Velocity Inlet*Frame2*Frame2" 0)
(cx-gui-do cx-activate-tab-index "Velocity Inlet*Frame2*Frame2" 4)
(cx-gui-do cx-activate-tab-index "Velocity Inlet*Frame2*Frame2" 0)
(cx-gui-do cx-activate-tab-index "Velocity Inlet*Frame2*Frame2" 5)
(cx-gui-do cx-activate-tab-index "Velocity Inlet*Frame2*Frame2" 0)
(cx-gui-do cx-activate-tab-index "Velocity Inlet*Frame2*Frame2" 6)
(cx-gui-do cx-activate-tab-index "Velocity Inlet*Frame2*Frame2" 0)
(cx-gui-do cx-activate-tab-index "Velocity Inlet*Frame2*Frame2" 7)
(cx-gui-do cx-activate-tab-index "Velocity Inlet*Frame2*Frame2" 0)
(cx-gui-do cx-activate-tab-index "Velocity Inlet*Frame2*Frame2" 8)
(cx-gui-do cx-activate-tab-index "Velocity Inlet*Frame2*Frame2" 0)
(cx-gui-do cx-enable-apply-button "Velocity Inlet")
(cx-gui-do cx-set-expression-entry "Velocity Inlet*Frame2*Frame2*Frame1(Momentum)*Table1*Table8*ExpressionEntry1(Velocity Magnitude)" '("0.001" . 0))
(cx-gui-do cx-set-list-selections "Velocity Inlet*Frame2*Frame2*Frame1(Momentum)*Table1*Table4(Turbulence)*DropDownList1(Specification Method)" '( 3))
(cx-gui-do cx-activate-item "Velocity Inlet*Frame2*Frame2*Frame1(Momentum)*Table1*Table4(Turbulence)*DropDownList1(Specification Method)")
(cx-gui-do cx-set-expression-entry "Velocity Inlet*Frame2*Frame2*Frame1(Momentum)*Table1*Table4(Turbulence)*ExpressionEntry9(Turbulent Intensity)" '("0.082" . 0))
(cx-gui-do cx-set-expression-entry "Velocity Inlet*Frame2*Frame2*Frame1(Momentum)*Table1*Table4(Turbulence)*ExpressionEntry11(Hydraulic Diameter)" '("4.5e-6" . 0))
(cx-gui-do cx-activate-tab-index "Velocity Inlet*Frame2*Frame2" 3)
(cx-gui-do cx-activate-tab-index "Velocity Inlet*Frame2*Frame2" 4)
(cx-gui-do cx-set-list-selections "Velocity Inlet*Frame2*Frame2*Frame5(DPM)*Table1*DropDownList1(Discrete Phase BC Type)" '( 2))
(cx-gui-do cx-activate-item "Velocity Inlet*Frame2*Frame2*Frame5(DPM)*Table1*DropDownList1(Discrete Phase BC Type)")
(cx-gui-do cx-activate-tab-index "Velocity Inlet*Frame2*Frame2" 0)
(cx-gui-do cx-activate-item "Velocity Inlet*PanelButtons*PushButton1(OK)")
(cx-gui-do cx-set-list-tree-selections "NavigationPane*List_Tree1" (list "Setup|Boundary Conditions|Internal|int_suroutone (interior, id=26)"))
(cx-gui-do cx-set-list-tree-selections "NavigationPane*List_Tree1" (list "Setup|Boundary Conditions|Wall|bufferin (wall, id=30)"))
(cx-gui-do cx-list-tree-right-click "NavigationPane*List_Tree1" )
(cx-gui-do cx-activate-item "Velocity Inlet*PanelButtons*PushButton2(Cancel)")
(cx-gui-do cx-set-list-tree-selections "NavigationPane*List_Tree1" (list "Setup|Boundary Conditions|Wall|bufferin (wall, id=30)"))
(cx-gui-do cx-list-tree-right-click "NavigationPane*List_Tree1" )
(cx-gui-do cx-activate-item "MenuBar*TypeSubMenu*velocity-inlet")
(cx-gui-do cx-activate-tab-index "Velocity Inlet*Frame2*Frame2" 0)
(cx-gui-do cx-activate-tab-index "Velocity Inlet*Frame2*Frame2" 1)
(cx-gui-do cx-activate-tab-index "Velocity Inlet*Frame2*Frame2" 0)
(cx-gui-do cx-activate-tab-index "Velocity Inlet*Frame2*Frame2" 2)
(cx-gui-do cx-activate-tab-index "Velocity Inlet*Frame2*Frame2" 0)
(cx-gui-do cx-activate-tab-index "Velocity Inlet*Frame2*Frame2" 3)
(cx-gui-do cx-activate-tab-index "Velocity Inlet*Frame2*Frame2" 0)
(cx-gui-do cx-activate-tab-index "Velocity Inlet*Frame2*Frame2" 4)
(cx-gui-do cx-activate-tab-index "Velocity Inlet*Frame2*Frame2" 0)
(cx-gui-do cx-activate-tab-index "Velocity Inlet*Frame2*Frame2" 5)
(cx-gui-do cx-activate-tab-index "Velocity Inlet*Frame2*Frame2" 0)
(cx-gui-do cx-activate-tab-index "Velocity Inlet*Frame2*Frame2" 6)
(cx-gui-do cx-activate-tab-index "Velocity Inlet*Frame2*Frame2" 0)
(cx-gui-do cx-activate-tab-index "Velocity Inlet*Frame2*Frame2" 7)
(cx-gui-do cx-activate-tab-index "Velocity Inlet*Frame2*Frame2" 0)
(cx-gui-do cx-activate-tab-index "Velocity Inlet*Frame2*Frame2" 8)
(cx-gui-do cx-activate-tab-index "Velocity Inlet*Frame2*Frame2" 0)
(cx-gui-do cx-enable-apply-button "Velocity Inlet")
(cx-gui-do cx-set-expression-entry "Velocity Inlet*Frame2*Frame2*Frame1(Momentum)*Table1*Table8*ExpressionEntry1(Velocity Magnitude)" '("0.001" . 0))
(cx-gui-do cx-set-list-selections "Velocity Inlet*Frame2*Frame2*Frame1(Momentum)*Table1*Table4(Turbulence)*DropDownList1(Specification Method)" '( 3))
(cx-gui-do cx-activate-item "Velocity Inlet*Frame2*Frame2*Frame1(Momentum)*Table1*Table4(Turbulence)*DropDownList1(Specification Method)")
(cx-gui-do cx-set-expression-entry "Velocity Inlet*Frame2*Frame2*Frame1(Momentum)*Table1*Table4(Turbulence)*ExpressionEntry9(Turbulent Intensity)" '("0.082" . 0))
(cx-gui-do cx-set-expression-entry "Velocity Inlet*Frame2*Frame2*Frame1(Momentum)*Table1*Table4(Turbulence)*ExpressionEntry11(Hydraulic Diameter)" '("4.5e-6" . 0))
(cx-gui-do cx-activate-tab-index "Velocity Inlet*Frame2*Frame2" 4)
(cx-gui-do cx-set-list-selections "Velocity Inlet*Frame2*Frame2*Frame5(DPM)*Table1*DropDownList1(Discrete Phase BC Type)" '( 2))
(cx-gui-do cx-activate-item "Velocity Inlet*Frame2*Frame2*Frame5(DPM)*Table1*DropDownList1(Discrete Phase BC Type)")
(cx-gui-do cx-activate-item "Velocity Inlet*PanelButtons*PushButton1(OK)")
(cx-gui-do cx-activate-item "Velocity Inlet*PanelButtons*PushButton2(Cancel)")
(cx-gui-do cx-set-list-tree-selections "NavigationPane*List_Tree1" (list "Setup|Boundary Conditions|Inlet|bloodin (velocity-inlet, id=29)"))
(cx-gui-do cx-set-list-tree-selections "NavigationPane*List_Tree1" (list "Setup|Boundary Conditions|Inlet|bloodin (velocity-inlet, id=29)"))
(cx-gui-do cx-activate-item "NavigationPane*List_Tree1")
(cx-gui-do cx-set-list-tree-selections "NavigationPane*List_Tree1" (list "Setup|Boundary Conditions|Inlet|bloodin (velocity-inlet, id=29)"))
(cx-gui-do cx-activate-item "Velocity Inlet*PanelButtons*PushButton2(Cancel)")
(cx-gui-do cx-set-list-tree-selections "NavigationPane*List_Tree1" (list "Setup|Boundary Conditions|Wall|outdown (wall, id=33)"))
(cx-gui-do cx-list-tree-right-click "NavigationPane*List_Tree1" )
(cx-gui-do cx-activate-item "MenuBar*TypeSubMenu*pressure-outlet")
(cx-gui-do cx-activate-tab-index "Pressure Outlet*Frame2*Frame2" 0)
(cx-gui-do cx-activate-tab-index "Pressure Outlet*Frame2*Frame2" 1)
(cx-gui-do cx-activate-tab-index "Pressure Outlet*Frame2*Frame2" 0)
(cx-gui-do cx-activate-tab-index "Pressure Outlet*Frame2*Frame2" 2)
(cx-gui-do cx-activate-tab-index "Pressure Outlet*Frame2*Frame2" 0)
(cx-gui-do cx-activate-tab-index "Pressure Outlet*Frame2*Frame2" 3)
(cx-gui-do cx-activate-tab-index "Pressure Outlet*Frame2*Frame2" 0)
(cx-gui-do cx-activate-tab-index "Pressure Outlet*Frame2*Frame2" 4)
(cx-gui-do cx-activate-tab-index "Pressure Outlet*Frame2*Frame2" 0)
(cx-gui-do cx-activate-tab-index "Pressure Outlet*Frame2*Frame2" 5)
(cx-gui-do cx-activate-tab-index "Pressure Outlet*Frame2*Frame2" 0)
(cx-gui-do cx-activate-tab-index "Pressure Outlet*Frame2*Frame2" 6)
(cx-gui-do cx-activate-tab-index "Pressure Outlet*Frame2*Frame2" 0)
(cx-gui-do cx-activate-tab-index "Pressure Outlet*Frame2*Frame2" 7)
(cx-gui-do cx-activate-tab-index "Pressure Outlet*Frame2*Frame2" 0)
(cx-gui-do cx-activate-tab-index "Pressure Outlet*Frame2*Frame2" 8)
(cx-gui-do cx-activate-tab-index "Pressure Outlet*Frame2*Frame2" 0)
(cx-gui-do cx-set-list-selections "Pressure Outlet*Frame2*Frame2*Frame1(Momentum)*Table1*Table3(Turbulence)*DropDownList1(Specification Method)" '( 3))
(cx-gui-do cx-enable-apply-button "Pressure Outlet")
(cx-gui-do cx-activate-item "Pressure Outlet*Frame2*Frame2*Frame1(Momentum)*Table1*Table3(Turbulence)*DropDownList1(Specification Method)")
(cx-gui-do cx-set-expression-entry "Pressure Outlet*Frame2*Frame2*Frame1(Momentum)*Table1*Table3(Turbulence)*ExpressionEntry9(Backflow Turbulent Intensity)" '("0.082" . 0))
(cx-gui-do cx-set-expression-entry "Pressure Outlet*Frame2*Frame2*Frame1(Momentum)*Table1*Table3(Turbulence)*ExpressionEntry11(Backflow Hydraulic Diameter)" '("4.5e-7" . 0))
(cx-gui-do cx-activate-tab-index "Pressure Outlet*Frame2*Frame2" 4)
(cx-gui-do cx-set-list-selections "Pressure Outlet*Frame2*Frame2*Frame5(DPM)*Table1*DropDownList1(Discrete Phase BC Type)" '( 2))
(cx-gui-do cx-activate-item "Pressure Outlet*Frame2*Frame2*Frame5(DPM)*Table1*DropDownList1(Discrete Phase BC Type)")
(cx-gui-do cx-activate-tab-index "Pressure Outlet*Frame2*Frame2" 0)
(cx-gui-do cx-activate-item "Pressure Outlet*PanelButtons*PushButton1(OK)")
(cx-gui-do cx-activate-item "Pressure Outlet*PanelButtons*PushButton2(Cancel)")
(cx-gui-do cx-set-list-tree-selections "NavigationPane*List_Tree1" (list ))
(cx-gui-do cx-set-list-tree-selections "NavigationPane*List_Tree1" (list "Setup|Boundary Conditions|Wall|outone (wall, id=31)"))
(cx-gui-do cx-list-tree-right-click "NavigationPane*List_Tree1" )
(cx-gui-do cx-activate-item "MenuBar*TypeSubMenu*pressure-outlet")
(cx-gui-do cx-activate-tab-index "Pressure Outlet*Frame2*Frame2" 0)
(cx-gui-do cx-activate-tab-index "Pressure Outlet*Frame2*Frame2" 1)
(cx-gui-do cx-activate-tab-index "Pressure Outlet*Frame2*Frame2" 0)
(cx-gui-do cx-activate-tab-index "Pressure Outlet*Frame2*Frame2" 2)
(cx-gui-do cx-activate-tab-index "Pressure Outlet*Frame2*Frame2" 0)
(cx-gui-do cx-activate-tab-index "Pressure Outlet*Frame2*Frame2" 3)
(cx-gui-do cx-activate-tab-index "Pressure Outlet*Frame2*Frame2" 0)
(cx-gui-do cx-activate-tab-index "Pressure Outlet*Frame2*Frame2" 4)
(cx-gui-do cx-activate-tab-index "Pressure Outlet*Frame2*Frame2" 0)
(cx-gui-do cx-activate-tab-index "Pressure Outlet*Frame2*Frame2" 5)
(cx-gui-do cx-activate-tab-index "Pressure Outlet*Frame2*Frame2" 0)
(cx-gui-do cx-activate-tab-index "Pressure Outlet*Frame2*Frame2" 6)
(cx-gui-do cx-activate-tab-index "Pressure Outlet*Frame2*Frame2" 0)
(cx-gui-do cx-activate-tab-index "Pressure Outlet*Frame2*Frame2" 7)
(cx-gui-do cx-activate-tab-index "Pressure Outlet*Frame2*Frame2" 0)
(cx-gui-do cx-activate-tab-index "Pressure Outlet*Frame2*Frame2" 8)
(cx-gui-do cx-activate-tab-index "Pressure Outlet*Frame2*Frame2" 0)
(cx-gui-do cx-set-list-selections "Pressure Outlet*Frame2*Frame2*Frame1(Momentum)*Table1*Table3(Turbulence)*DropDownList1(Specification Method)" '( 3))
(cx-gui-do cx-enable-apply-button "Pressure Outlet")
(cx-gui-do cx-activate-item "Pressure Outlet*Frame2*Frame2*Frame1(Momentum)*Table1*Table3(Turbulence)*DropDownList1(Specification Method)")
(cx-gui-do cx-set-expression-entry "Pressure Outlet*Frame2*Frame2*Frame1(Momentum)*Table1*Table3(Turbulence)*ExpressionEntry9(Backflow Turbulent Intensity)" '("0.082" . 0))
(cx-gui-do cx-set-expression-entry "Pressure Outlet*Frame2*Frame2*Frame1(Momentum)*Table1*Table3(Turbulence)*ExpressionEntry11(Backflow Hydraulic Diameter)" '("4.5e-7" . 0))
(cx-gui-do cx-activate-tab-index "Pressure Outlet*Frame2*Frame2" 4)
(cx-gui-do cx-set-list-selections "Pressure Outlet*Frame2*Frame2*Frame5(DPM)*Table1*DropDownList1(Discrete Phase BC Type)" '( 2))
(cx-gui-do cx-activate-item "Pressure Outlet*Frame2*Frame2*Frame5(DPM)*Table1*DropDownList1(Discrete Phase BC Type)")
(cx-gui-do cx-activate-item "Pressure Outlet*PanelButtons*PushButton1(OK)")
(cx-gui-do cx-activate-item "Pressure Outlet*PanelButtons*PushButton2(Cancel)")
(cx-gui-do cx-set-list-tree-selections "NavigationPane*List_Tree1" (list "Setup|Boundary Conditions|Wall|outup (wall, id=32)"))
(cx-gui-do cx-list-tree-right-click "NavigationPane*List_Tree1" )
(cx-gui-do cx-activate-item "MenuBar*TypeSubMenu*pressure-outlet")
(cx-gui-do cx-activate-tab-index "Pressure Outlet*Frame2*Frame2" 0)
(cx-gui-do cx-activate-tab-index "Pressure Outlet*Frame2*Frame2" 1)
(cx-gui-do cx-activate-tab-index "Pressure Outlet*Frame2*Frame2" 0)
(cx-gui-do cx-activate-tab-index "Pressure Outlet*Frame2*Frame2" 2)
(cx-gui-do cx-activate-tab-index "Pressure Outlet*Frame2*Frame2" 0)
(cx-gui-do cx-activate-tab-index "Pressure Outlet*Frame2*Frame2" 3)
(cx-gui-do cx-activate-tab-index "Pressure Outlet*Frame2*Frame2" 0)
(cx-gui-do cx-activate-tab-index "Pressure Outlet*Frame2*Frame2" 4)
(cx-gui-do cx-activate-tab-index "Pressure Outlet*Frame2*Frame2" 0)
(cx-gui-do cx-activate-tab-index "Pressure Outlet*Frame2*Frame2" 5)
(cx-gui-do cx-activate-tab-index "Pressure Outlet*Frame2*Frame2" 0)
(cx-gui-do cx-activate-tab-index "Pressure Outlet*Frame2*Frame2" 6)
(cx-gui-do cx-activate-tab-index "Pressure Outlet*Frame2*Frame2" 0)
(cx-gui-do cx-activate-tab-index "Pressure Outlet*Frame2*Frame2" 7)
(cx-gui-do cx-activate-tab-index "Pressure Outlet*Frame2*Frame2" 0)
(cx-gui-do cx-activate-tab-index "Pressure Outlet*Frame2*Frame2" 8)
(cx-gui-do cx-activate-tab-index "Pressure Outlet*Frame2*Frame2" 0)
(cx-gui-do cx-set-list-selections "Pressure Outlet*Frame2*Frame2*Frame1(Momentum)*Table1*Table3(Turbulence)*DropDownList1(Specification Method)" '( 3))
(cx-gui-do cx-enable-apply-button "Pressure Outlet")
(cx-gui-do cx-activate-item "Pressure Outlet*Frame2*Frame2*Frame1(Momentum)*Table1*Table3(Turbulence)*DropDownList1(Specification Method)")
(cx-gui-do cx-set-expression-entry "Pressure Outlet*Frame2*Frame2*Frame1(Momentum)*Table1*Table3(Turbulence)*ExpressionEntry9(Backflow Turbulent Intensity)" '("0.082" . 0))
(cx-gui-do cx-set-expression-entry "Pressure Outlet*Frame2*Frame2*Frame1(Momentum)*Table1*Table3(Turbulence)*ExpressionEntry11(Backflow Hydraulic Diameter)" '("4.5e-7" . 0))
(cx-gui-do cx-activate-tab-index "Pressure Outlet*Frame2*Frame2" 3)
(cx-gui-do cx-activate-tab-index "Pressure Outlet*Frame2*Frame2" 4)
(cx-gui-do cx-set-list-selections "Pressure Outlet*Frame2*Frame2*Frame5(DPM)*Table1*DropDownList1(Discrete Phase BC Type)" '( 2))
(cx-gui-do cx-activate-item "Pressure Outlet*Frame2*Frame2*Frame5(DPM)*Table1*DropDownList1(Discrete Phase BC Type)")
(cx-gui-do cx-activate-item "Pressure Outlet*PanelButtons*PushButton1(OK)")
(cx-gui-do cx-activate-item "Pressure Outlet*PanelButtons*PushButton2(Cancel)")
(cx-gui-do cx-set-list-tree-selections "NavigationPane*List_Tree1" (list "Setup|Boundary Conditions"))
(cx-gui-do cx-set-list-tree-selections "NavigationPane*List_Tree1" (list "Setup|Boundary Conditions"))
(cx-gui-do cx-activate-item "NavigationPane*List_Tree1")
(cx-gui-do cx-set-list-tree-selections "NavigationPane*List_Tree1" (list "Setup|Boundary Conditions"))
(cx-gui-do cx-set-list-selections "Boundary Conditions*Table1*List2(Zone)" '( 2))
(cx-gui-do cx-activate-item "Boundary Conditions*Table1*List2(Zone)")
(cx-gui-do cx-set-list-selections "Boundary Conditions*Table1*List2(Zone)" '( 3))
(cx-gui-do cx-activate-item "Boundary Conditions*Table1*List2(Zone)")
(cx-gui-do cx-set-list-selections "Boundary Conditions*Table1*List2(Zone)" '( 4))
(cx-gui-do cx-activate-item "Boundary Conditions*Table1*List2(Zone)")
(cx-gui-do cx-set-list-selections "Boundary Conditions*Table1*List2(Zone)" '( 5))
(cx-gui-do cx-activate-item "Boundary Conditions*Table1*List2(Zone)")
(cx-gui-do cx-set-list-selections "Boundary Conditions*Table1*List2(Zone)" '( 8))
(cx-gui-do cx-activate-item "Boundary Conditions*Table1*List2(Zone)")
(cx-gui-do cx-set-list-selections "Boundary Conditions*Table1*List2(Zone)" '( 17))
(cx-gui-do cx-activate-item "Boundary Conditions*Table1*List2(Zone)")
(cx-gui-do cx-set-list-tree-selections "NavigationPane*List_Tree1" (list "Solution|Monitors|Residual"))
(cx-gui-do cx-set-list-tree-selections "NavigationPane*List_Tree1" (list "Solution|Monitors|Residual"))
(cx-gui-do cx-activate-item "NavigationPane*List_Tree1")
(cx-gui-do cx-set-list-tree-selections "NavigationPane*List_Tree1" (list "Solution|Monitors|Residual"))
(cx-gui-do cx-set-real-entry-list "Residual Monitors*Table1*Table2*Table1*Table1(Equations)*RealEntry11" '( 1e-08))
(cx-gui-do cx-activate-item "Residual Monitors*PanelButtons*PushButton1(OK)")
(cx-gui-do cx-set-list-tree-selections "NavigationPane*List_Tree1" (list "Solution|Monitors"))
(cx-gui-do cx-set-list-tree-selections "NavigationPane*List_Tree1" (list "Solution|Monitors"))
(cx-gui-do cx-set-list-tree-selections "NavigationPane*List_Tree1" (list "Solution|Monitors|Residual"))
(cx-gui-do cx-set-list-tree-selections "NavigationPane*List_Tree1" (list "Solution|Monitors|Residual"))
(cx-gui-do cx-activate-item "NavigationPane*List_Tree1")
(cx-gui-do cx-set-list-tree-selections "NavigationPane*List_Tree1" (list "Solution|Monitors|Residual"))
(cx-gui-do cx-activate-item "Residual Monitors*PanelButtons*PushButton2(Cancel)")
(cx-gui-do cx-set-list-tree-selections "NavigationPane*List_Tree1" (list "Solution|Initialization"))
(cx-gui-do cx-set-list-tree-selections "NavigationPane*List_Tree1" (list "Solution|Initialization"))
(cx-gui-do cx-activate-item "NavigationPane*List_Tree1")
(cx-gui-do cx-set-list-tree-selections "NavigationPane*List_Tree1" (list "Solution|Initialization"))
(cx-gui-do cx-activate-item "Solution Initialization*Table1*Frame12*PushButton2(Initialize)")

Initialize using the hybrid initialization method.

Checking case topology... 
-This case has both inlets & outlets 
-Pressure information is not available at the boundaries.
 Case will be initialized with constant pressure

	iter		scalar-0

	1		1.000000e+00
	2		5.208571e-05
	3		6.884184e-06
	4		1.388936e-05
	5		8.709379e-06
	6		6.140416e-06
	7		4.656392e-06
	8		3.709125e-06
	9		3.059783e-06
	10		2.590726e-06

Hybrid initialization is done.

Warning: convergence tolerance of 1.000000e-06 not reached
during Hybrid Initialization.
(cx-gui-do cx-set-list-tree-selections "NavigationPane*List_Tree1" (list "Solution|Run Calculation"))
(cx-gui-do cx-set-list-tree-selections "NavigationPane*List_Tree1" (list "Solution|Run Calculation"))
(cx-gui-do cx-activate-item "NavigationPane*List_Tree1")
(cx-gui-do cx-set-list-tree-selections "NavigationPane*List_Tree1" (list "Solution|Run Calculation"))
(cx-gui-do cx-set-integer-entry "Run Calculation*Table1*Table3(Parameters)*Table1*Table1*IntegerEntry1(Number of Iterations)" 100)
(cx-gui-do cx-activate-item "Run Calculation*Table1*Table3(Parameters)*Table1*Table1*IntegerEntry1(Number of Iterations)")
(cx-gui-do cx-activate-item "Run Calculation*Table1*Table6(Solution Advancement)*Table1*PushButton1(Calculate)")


  iter  continuity  x-velocity  y-velocity      energy           k     epsilon         wbc         rbc    platelet      plasma     time/iter
     1  1.0000e+00  2.6539e-03  2.7030e-03  0.0000e+00  1.0002e+00  9.8779e-01  0.0000e+00  0.0000e+00  0.0000e+00  0.0000e+00  0:44:33   99

 Reversed flow on 9 faces (8.4% area) of pressure-outlet 31.

 Reversed flow on 2 faces (5.3% area) of pressure-outlet 32.

 Reversed flow on 22 faces (36.9% area) of pressure-outlet 33.
     2  1.0000e+00  2.4260e-03  2.4477e-03  0.0000e+00  9.9753e-01  9.7015e-01  0.0000e+00  0.0000e+00  0.0000e+00  0.0000e+00  0:44:45   98

 Reversed flow on 23 faces (21.5% area) of pressure-outlet 31.

 Reversed flow on 3 faces (7.6% area) of pressure-outlet 32.

 Reversed flow on 1 face (2.3% area) of pressure-outlet 33.
     3  1.0000e+00  2.5019e-03  2.5179e-03  0.0000e+00  9.9032e-01  9.3356e-01  0.0000e+00  0.0000e+00  0.0000e+00  0.0000e+00  0:43:51   97

 Reversed flow on 43 faces (42.1% area) of pressure-outlet 31.

 Reversed flow on 3 faces (7.6% area) of pressure-outlet 32.
     4  1.0000e+00  2.4231e-03  2.4277e-03  0.0000e+00  8.5260e-01  8.6115e-01  0.0000e+00  0.0000e+00  0.0000e+00  0.0000e+00  0:42:43   96

 Reversed flow on 65 faces (63.3% area) of pressure-outlet 31.

 Reversed flow on 3 faces (7.6% area) of pressure-outlet 32.
     5  1.0000e+00  2.2293e-03  2.2070e-03  0.0000e+00  6.7931e-01  7.3815e-01  0.0000e+00  0.0000e+00  0.0000e+00  0.0000e+00  0:41:44   95

 Reversed flow on 78 faces (74.3% area) of pressure-outlet 31.

 Reversed flow on 3 faces (7.6% area) of pressure-outlet 32.
     6  1.0230e+00  1.9940e-03  1.9436e-03  1.5584e-16  7.8294e-01  5.6442e-01  0.0000e+00  0.0000e+00  0.0000e+00  0.0000e+00  0:40:52   94

 Reversed flow on 83 faces (79.0% area) of pressure-outlet 31.

 Reversed flow on 3 faces (7.6% area) of pressure-outlet 32.
     7  1.0516e+00  1.7501e-03  1.6821e-03  1.5669e-16  8.0720e-01  3.4635e-01  0.0000e+00  0.0000e+00  0.0000e+00  0.0000e+00  0:40:24   93

 Reversed flow on 84 faces (80.0% area) of pressure-outlet 31.

 Reversed flow on 3 faces (7.6% area) of pressure-outlet 32.

 Reversed flow on 1 face (2.3% area) of pressure-outlet 33.
     8  1.0511e+00  1.5177e-03  1.4388e-03  1.5142e-16  7.8051e-01  2.9864e-01  0.0000e+00  0.0000e+00  0.0000e+00  0.0000e+00  0:39:20   92

 Reversed flow on 85 faces (81.4% area) of pressure-outlet 31.

 Reversed flow on 3 faces (7.6% area) of pressure-outlet 32.

 Reversed flow on 2 faces (5.0% area) of pressure-outlet 33.
     9  1.0251e+00  1.2629e-03  1.1853e-03  1.4543e-16  4.8127e-01  5.6545e-01  0.0000e+00  0.0000e+00  0.0000e+00  0.0000e+00  0:38:06   91

 Reversed flow on 86 faces (82.2% area) of pressure-outlet 31.

 Reversed flow on 4 faces (9.9% area) of pressure-outlet 32.

 Reversed flow on 2 faces (5.0% area) of pressure-outlet 33.
    10  9.6510e-01  9.8124e-04  9.1119e-04  1.4267e-16  2.1594e-01  2.7529e-01  0.0000e+00  0.0000e+00  0.0000e+00  0.0000e+00  0:37:03   90

 Reversed flow on 86 faces (82.2% area) of pressure-outlet 31.

 Reversed flow on 5 faces (11.4% area) of pressure-outlet 32.

 Reversed flow on 2 faces (5.0% area) of pressure-outlet 33.
    11  8.9615e-01  7.6181e-04  7.0361e-04  1.4138e-16  8.4736e-02  1.2813e-01  0.0000e+00  0.0000e+00  0.0000e+00  0.0000e+00  0:35:32   89

 Reversed flow on 87 faces (83.1% area) of pressure-outlet 31.

 Reversed flow on 6 faces (14.4% area) of pressure-outlet 32.

 Reversed flow on 2 faces (5.0% area) of pressure-outlet 33.

  iter  continuity  x-velocity  y-velocity      energy           k     epsilon         wbc         rbc    platelet      plasma     time/iter
    12  8.2044e-01  5.7722e-04  5.3094e-04  1.3888e-16  3.6063e-02  7.7263e-02  0.0000e+00  0.0000e+00  0.0000e+00  0.0000e+00  0:35:09   88

 Reversed flow on 87 faces (83.1% area) of pressure-outlet 31.

 Reversed flow on 8 faces (17.8% area) of pressure-outlet 32.

 Reversed flow on 2 faces (5.0% area) of pressure-outlet 33.
    13  7.9207e-01  4.3908e-04  4.0552e-04  1.3600e-16  2.4759e-02  4.2567e-02  0.0000e+00  0.0000e+00  0.0000e+00  0.0000e+00  0:34:11   87

 Reversed flow on 87 faces (83.1% area) of pressure-outlet 31.

 Reversed flow on 9 faces (20.8% area) of pressure-outlet 32.

 Reversed flow on 2 faces (5.0% area) of pressure-outlet 33.
    14  7.1885e-01  3.2218e-04  3.0118e-04  1.3807e-16  2.2408e-02  4.0836e-02  0.0000e+00  0.0000e+00  0.0000e+00  0.0000e+00  0:34:12   86

 Reversed flow on 87 faces (83.1% area) of pressure-outlet 31.

 Reversed flow on 10 faces (23.1% area) of pressure-outlet 32.

 Reversed flow on 2 faces (5.0% area) of pressure-outlet 33.
    15  6.9165e-01  3.0796e-04  2.9214e-04  1.3711e-16  1.6013e-02  3.0868e-02  0.0000e+00  0.0000e+00  0.0000e+00  0.0000e+00  0:33:50   85

 Reversed flow on 87 faces (83.1% area) of pressure-outlet 31.

 Reversed flow on 10 faces (23.1% area) of pressure-outlet 32.

 Reversed flow on 2 faces (5.0% area) of pressure-outlet 33.
    16  6.5791e-01  3.1118e-04  2.9448e-04  1.3866e-16  1.1302e-02  2.5773e-02  0.0000e+00  0.0000e+00  0.0000e+00  0.0000e+00  0:33:45   84

 Reversed flow on 87 faces (83.1% area) of pressure-outlet 31.

 Reversed flow on 10 faces (23.1% area) of pressure-outlet 32.

 Reversed flow on 3 faces (7.6% area) of pressure-outlet 33.
    17  6.1757e-01  2.9830e-04  2.8161e-04  1.3965e-16  7.9297e-03  2.5451e-02  0.0000e+00  0.0000e+00  0.0000e+00  0.0000e+00  0:33:19   83

 Reversed flow on 87 faces (83.1% area) of pressure-outlet 31.

 Reversed flow on 10 faces (23.1% area) of pressure-outlet 32.

 Reversed flow on 4 faces (9.9% area) of pressure-outlet 33.
    18  5.6813e-01  2.7506e-04  2.5825e-04  1.3900e-16  6.2611e-03  2.5366e-02  0.0000e+00  0.0000e+00  0.0000e+00  0.0000e+00  0:33:27   82

 Reversed flow on 87 faces (83.1% area) of pressure-outlet 31.

 Reversed flow on 10 faces (23.1% area) of pressure-outlet 32.

 Reversed flow on 4 faces (9.9% area) of pressure-outlet 33.
    19  5.2918e-01  2.4938e-04  2.3357e-04  1.3798e-16  5.5239e-03  2.4103e-02  0.0000e+00  0.0000e+00  0.0000e+00  0.0000e+00  0:33:11   81

 Reversed flow on 87 faces (83.1% area) of pressure-outlet 31.

 Reversed flow on 10 faces (23.1% area) of pressure-outlet 32.

 Reversed flow on 4 faces (9.9% area) of pressure-outlet 33.
    20  4.9174e-01  2.2388e-04  2.0951e-04  1.4169e-16  4.8563e-03  2.2467e-02  0.0000e+00  0.0000e+00  0.0000e+00  0.0000e+00  0:33:09   80

 Reversed flow on 87 faces (83.1% area) of pressure-outlet 31.

 Reversed flow on 10 faces (23.1% area) of pressure-outlet 32.

 Reversed flow on 5 faces (11.4% area) of pressure-outlet 33.
    21  4.4446e-01  2.0023e-04  1.8679e-04  1.4096e-16  4.2031e-03  2.1042e-02  0.0000e+00  0.0000e+00  0.0000e+00  0.0000e+00  0:32:46   79

 Reversed flow on 87 faces (83.1% area) of pressure-outlet 31.

 Reversed flow on 10 faces (23.1% area) of pressure-outlet 32.

 Reversed flow on 5 faces (11.4% area) of pressure-outlet 33.
    22  4.1126e-01  1.7797e-04  1.6602e-04  1.4442e-16  3.5470e-03  1.9350e-02  0.0000e+00  0.0000e+00  0.0000e+00  0.0000e+00  0:32:23   78

 Reversed flow on 87 faces (83.1% area) of pressure-outlet 31.

 Reversed flow on 10 faces (23.1% area) of pressure-outlet 32.

 Reversed flow on 5 faces (11.4% area) of pressure-outlet 33.

  iter  continuity  x-velocity  y-velocity      energy           k     epsilon         wbc         rbc    platelet      plasma     time/iter
    23  3.8725e-01  1.6105e-04  1.5020e-04  1.4460e-16  2.9736e-03  1.7726e-02  0.0000e+00  0.0000e+00  0.0000e+00  0.0000e+00  0:32:15   77

 Reversed flow on 87 faces (83.1% area) of pressure-outlet 31.

 Reversed flow on 10 faces (23.1% area) of pressure-outlet 32.

 Reversed flow on 5 faces (11.4% area) of pressure-outlet 33.
    24  3.5786e-01  1.5571e-04  1.4451e-04  1.4373e-16  2.5287e-03  1.6404e-02  0.0000e+00  0.0000e+00  0.0000e+00  0.0000e+00  0:31:48   76

 Reversed flow on 87 faces (83.1% area) of pressure-outlet 31.

 Reversed flow on 10 faces (23.1% area) of pressure-outlet 32.

 Reversed flow on 5 faces (11.4% area) of pressure-outlet 33.
    25  3.3442e-01  1.5524e-04  1.4402e-04  1.4177e-16  2.2166e-03  1.5246e-02  0.0000e+00  0.0000e+00  0.0000e+00  0.0000e+00  0:31:36   75

 Reversed flow on 87 faces (83.1% area) of pressure-outlet 31.

 Reversed flow on 11 faces (25.8% area) of pressure-outlet 32.

 Reversed flow on 5 faces (11.4% area) of pressure-outlet 33.
    26  3.1539e-01  1.5316e-04  1.4241e-04  1.4511e-16  2.0548e-03  1.4304e-02  0.0000e+00  0.0000e+00  0.0000e+00  0.0000e+00  0:31:07   74

 Reversed flow on 87 faces (83.1% area) of pressure-outlet 31.

 Reversed flow on 11 faces (25.8% area) of pressure-outlet 32.

 Reversed flow on 5 faces (11.4% area) of pressure-outlet 33.
    27  2.9722e-01  1.4996e-04  1.3951e-04  1.4564e-16  1.8631e-03  1.2910e-02  0.0000e+00  0.0000e+00  0.0000e+00  0.0000e+00  0:30:38   73

 Reversed flow on 87 faces (83.1% area) of pressure-outlet 31.

 Reversed flow on 11 faces (25.8% area) of pressure-outlet 32.

 Reversed flow on 5 faces (11.4% area) of pressure-outlet 33.
    28  2.7658e-01  1.4402e-04  1.3391e-04  1.4534e-16  1.8020e-03  1.2211e-02  0.0000e+00  0.0000e+00  0.0000e+00  0.0000e+00  0:30:10   72

 Reversed flow on 87 faces (83.1% area) of pressure-outlet 31.

 Reversed flow on 11 faces (25.8% area) of pressure-outlet 32.

 Reversed flow on 5 faces (11.4% area) of pressure-outlet 33.
    29  2.5914e-01  1.3760e-04  1.2799e-04  1.4649e-16  1.6257e-03  1.0953e-02  0.0000e+00  0.0000e+00  0.0000e+00  0.0000e+00  0:29:29   71

 Reversed flow on 87 faces (83.1% area) of pressure-outlet 31.

 Reversed flow on 11 faces (25.8% area) of pressure-outlet 32.

 Reversed flow on 5 faces (11.4% area) of pressure-outlet 33.
    30  2.4000e-01  1.2906e-04  1.2007e-04  1.4649e-16  1.6301e-03  1.0759e-02  0.0000e+00  0.0000e+00  0.0000e+00  0.0000e+00  0:29:05   70

 Reversed flow on 87 faces (83.1% area) of pressure-outlet 31.

 Reversed flow on 11 faces (25.8% area) of pressure-outlet 32.

 Reversed flow on 5 faces (11.4% area) of pressure-outlet 33.
    31  2.2697e-01  1.2214e-04  1.1378e-04  1.4741e-16  1.4499e-03  9.6161e-03  0.0000e+00  0.0000e+00  0.0000e+00  0.0000e+00  0:28:27   69

 Reversed flow on 87 faces (83.1% area) of pressure-outlet 31.

 Reversed flow on 11 faces (25.8% area) of pressure-outlet 32.

 Reversed flow on 5 faces (11.4% area) of pressure-outlet 33.
    32  2.1220e-01  1.1345e-04  1.0573e-04  1.4658e-16  1.3663e-03  8.9096e-03  0.0000e+00  0.0000e+00  0.0000e+00  0.0000e+00  0:27:53   68

 Reversed flow on 87 faces (83.1% area) of pressure-outlet 31.

 Reversed flow on 11 faces (25.8% area) of pressure-outlet 32.

 Reversed flow on 5 faces (11.4% area) of pressure-outlet 33.
    33  1.9823e-01  1.0525e-04  9.8132e-05  1.4851e-16  1.2762e-03  8.3154e-03  0.0000e+00  0.0000e+00  0.0000e+00  0.0000e+00  0:27:20   67

 Reversed flow on 87 faces (83.1% area) of pressure-outlet 31.

 Reversed flow on 11 faces (25.8% area) of pressure-outlet 32.

 Reversed flow on 5 faces (11.4% area) of pressure-outlet 33.

  iter  continuity  x-velocity  y-velocity      energy           k     epsilon         wbc         rbc    platelet      plasma     time/iter
    34  1.8550e-01  9.7401e-05  9.0842e-05  1.5014e-16  1.1261e-03  7.3113e-03  0.0000e+00  0.0000e+00  0.0000e+00  0.0000e+00  0:26:49   66

 Reversed flow on 87 faces (83.1% area) of pressure-outlet 31.

 Reversed flow on 11 faces (25.8% area) of pressure-outlet 32.

 Reversed flow on 5 faces (11.4% area) of pressure-outlet 33.
    35  1.7053e-01  8.8904e-05  8.2851e-05  1.4872e-16  1.1676e-03  7.5022e-03  0.0000e+00  0.0000e+00  0.0000e+00  0.0000e+00  0:26:33   65

 Reversed flow on 87 faces (83.1% area) of pressure-outlet 31.

 Reversed flow on 11 faces (25.8% area) of pressure-outlet 32.

 Reversed flow on 5 faces (11.4% area) of pressure-outlet 33.
    36  1.6426e-01  8.3330e-05  7.7791e-05  1.4954e-16  9.1009e-04  5.9936e-03  0.0000e+00  0.0000e+00  0.0000e+00  0.0000e+00  0:25:49   64

 Reversed flow on 87 faces (83.1% area) of pressure-outlet 31.

 Reversed flow on 11 faces (25.8% area) of pressure-outlet 32.

 Reversed flow on 5 faces (11.4% area) of pressure-outlet 33.
    37  1.4878e-01  7.4907e-05  6.9755e-05  1.5010e-16  1.0039e-03  6.4039e-03  0.0000e+00  0.0000e+00  0.0000e+00  0.0000e+00  0:25:22   63

 Reversed flow on 87 faces (83.1% area) of pressure-outlet 31.

 Reversed flow on 12 faces (28.4% area) of pressure-outlet 32.

 Reversed flow on 5 faces (11.4% area) of pressure-outlet 33.
    38  1.4363e-01  7.0449e-05  6.5760e-05  1.5466e-16  7.7592e-04  5.1719e-03  0.0000e+00  0.0000e+00  0.0000e+00  0.0000e+00  0:24:56   62

 Reversed flow on 87 faces (83.1% area) of pressure-outlet 31.

 Reversed flow on 12 faces (28.4% area) of pressure-outlet 32.

 Reversed flow on 5 faces (11.4% area) of pressure-outlet 33.
    39  1.3008e-01  6.3421e-05  5.9048e-05  1.5598e-16  8.1350e-04  5.2087e-03  0.0000e+00  0.0000e+00  0.0000e+00  0.0000e+00  0:24:30   61

 Reversed flow on 87 faces (83.1% area) of pressure-outlet 31.

 Reversed flow on 12 faces (28.4% area) of pressure-outlet 32.

 Reversed flow on 5 faces (11.4% area) of pressure-outlet 33.
    40  1.2372e-01  5.9069e-05  5.5086e-05  1.5652e-16  7.0193e-04  4.6756e-03  0.0000e+00  0.0000e+00  0.0000e+00  0.0000e+00  0:23:53   60

 Reversed flow on 87 faces (83.1% area) of pressure-outlet 31.

 Reversed flow on 12 faces (28.4% area) of pressure-outlet 32.

 Reversed flow on 5 faces (11.4% area) of pressure-outlet 33.
    41  1.1487e-01  5.4141e-05  5.0443e-05  1.5581e-16  6.5254e-04  4.2564e-03  0.0000e+00  0.0000e+00  0.0000e+00  0.0000e+00  0:23:31   59

 Reversed flow on 87 faces (83.1% area) of pressure-outlet 31.

 Reversed flow on 12 faces (28.4% area) of pressure-outlet 32.

 Reversed flow on 6 faces (13.0% area) of pressure-outlet 33.
    42  1.0651e-01  4.9833e-05  4.6428e-05  1.5518e-16  6.3696e-04  4.2107e-03  0.0000e+00  0.0000e+00  0.0000e+00  0.0000e+00  0:23:08   58

 Reversed flow on 87 faces (83.1% area) of pressure-outlet 31.

 Reversed flow on 12 faces (28.4% area) of pressure-outlet 32.

 Reversed flow on 6 faces (13.0% area) of pressure-outlet 33.
    43  1.0117e-01  4.6549e-05  4.3423e-05  1.5328e-16  5.2402e-04  3.4989e-03  0.0000e+00  0.0000e+00  0.0000e+00  0.0000e+00  0:22:33   57

 Reversed flow on 87 faces (83.1% area) of pressure-outlet 31.

 Reversed flow on 12 faces (28.4% area) of pressure-outlet 32.

 Reversed flow on 6 faces (13.0% area) of pressure-outlet 33.
    44  9.2244e-02  4.2293e-05  3.9394e-05  1.5397e-16  5.4767e-04  3.5965e-03  0.0000e+00  0.0000e+00  0.0000e+00  0.0000e+00  0:22:12   56

 Reversed flow on 87 faces (83.1% area) of pressure-outlet 31.

 Reversed flow on 12 faces (28.4% area) of pressure-outlet 32.

 Reversed flow on 6 faces (13.0% area) of pressure-outlet 33.

  iter  continuity  x-velocity  y-velocity      energy           k     epsilon         wbc         rbc    platelet      plasma     time/iter
    45  8.7239e-02  3.9756e-05  3.7061e-05  1.5460e-16  4.7571e-04  3.2010e-03  0.0000e+00  0.0000e+00  0.0000e+00  0.0000e+00  0:21:51   55

 Reversed flow on 87 faces (83.1% area) of pressure-outlet 31.

 Reversed flow on 12 faces (28.4% area) of pressure-outlet 32.

 Reversed flow on 6 faces (13.0% area) of pressure-outlet 33.
    46  8.0921e-02  3.6732e-05  3.4212e-05  1.5552e-16  4.7011e-04  3.1077e-03  0.0000e+00  0.0000e+00  0.0000e+00  0.0000e+00  0:21:29   54

 Reversed flow on 87 faces (83.1% area) of pressure-outlet 31.

 Reversed flow on 12 faces (28.4% area) of pressure-outlet 32.

 Reversed flow on 6 faces (13.0% area) of pressure-outlet 33.
    47  7.6969e-02  3.4506e-05  3.2184e-05  1.5322e-16  3.8840e-04  2.6333e-03  0.0000e+00  0.0000e+00  0.0000e+00  0.0000e+00  0:20:56   53

 Reversed flow on 87 faces (83.1% area) of pressure-outlet 31.

 Reversed flow on 12 faces (28.4% area) of pressure-outlet 32.

 Reversed flow on 6 faces (13.0% area) of pressure-outlet 33.
    48  7.0450e-02  3.1464e-05  2.9320e-05  1.5518e-16  4.0737e-04  2.6811e-03  0.0000e+00  0.0000e+00  0.0000e+00  0.0000e+00  0:20:35   52

 Reversed flow on 87 faces (83.1% area) of pressure-outlet 31.

 Reversed flow on 12 faces (28.4% area) of pressure-outlet 32.

 Reversed flow on 6 faces (13.0% area) of pressure-outlet 33.
    49  6.7453e-02  2.9658e-05  2.7700e-05  1.5353e-16  3.3333e-04  2.2701e-03  0.0000e+00  0.0000e+00  0.0000e+00  0.0000e+00  0:20:14   51

 Reversed flow on 87 faces (83.1% area) of pressure-outlet 31.

 Reversed flow on 12 faces (28.4% area) of pressure-outlet 32.

 Reversed flow on 6 faces (13.0% area) of pressure-outlet 33.
    50  6.1369e-02  2.7071e-05  2.5231e-05  1.5266e-16  3.5108e-04  2.3072e-03  0.0000e+00  0.0000e+00  0.0000e+00  0.0000e+00  0:19:52   50

 Reversed flow on 87 faces (83.1% area) of pressure-outlet 31.

 Reversed flow on 12 faces (28.4% area) of pressure-outlet 32.

 Reversed flow on 6 faces (13.0% area) of pressure-outlet 33.
    51  5.8601e-02  2.5548e-05  2.3862e-05  1.5343e-16  2.8774e-04  1.9627e-03  0.0000e+00  0.0000e+00  0.0000e+00  0.0000e+00  0:19:20   49

 Reversed flow on 87 faces (83.1% area) of pressure-outlet 31.

 Reversed flow on 12 faces (28.4% area) of pressure-outlet 32.

 Reversed flow on 6 faces (13.0% area) of pressure-outlet 33.
    52  5.3509e-02  2.3336e-05  2.1754e-05  1.5400e-16  2.8672e-04  1.8894e-03  0.0000e+00  0.0000e+00  0.0000e+00  0.0000e+00  0:19:00   48

 Reversed flow on 87 faces (83.1% area) of pressure-outlet 31.

 Reversed flow on 12 faces (28.4% area) of pressure-outlet 32.

 Reversed flow on 6 faces (13.0% area) of pressure-outlet 33.
    53  5.0219e-02  2.1738e-05  2.0287e-05  1.5305e-16  2.6464e-04  1.7824e-03  0.0000e+00  0.0000e+00  0.0000e+00  0.0000e+00  0:18:29   47

 Reversed flow on 87 faces (83.1% area) of pressure-outlet 31.

 Reversed flow on 12 faces (28.4% area) of pressure-outlet 32.

 Reversed flow on 6 faces (13.0% area) of pressure-outlet 33.
    54  4.7485e-02  2.0198e-05  1.8860e-05  1.5362e-16  2.3048e-04  1.5436e-03  0.0000e+00  0.0000e+00  0.0000e+00  0.0000e+00  0:18:00   46

 Reversed flow on 87 faces (83.1% area) of pressure-outlet 31.

 Reversed flow on 13 faces (29.9% area) of pressure-outlet 32.

 Reversed flow on 6 faces (13.0% area) of pressure-outlet 33.
    55  4.3126e-02  1.8517e-05  1.7254e-05  1.5385e-16  2.4206e-04  1.6034e-03  0.0000e+00  0.0000e+00  0.0000e+00  0.0000e+00  0:17:50   45

 Reversed flow on 87 faces (83.1% area) of pressure-outlet 31.

 Reversed flow on 13 faces (29.9% area) of pressure-outlet 32.

 Reversed flow on 6 faces (13.0% area) of pressure-outlet 33.

  iter  continuity  x-velocity  y-velocity      energy           k     epsilon         wbc         rbc    platelet      plasma     time/iter
    56  4.1181e-02  1.7520e-05  1.6356e-05  1.5592e-16  1.9844e-04  1.3472e-03  0.0000e+00  0.0000e+00  0.0000e+00  0.0000e+00  0:17:19   44

 Reversed flow on 87 faces (83.1% area) of pressure-outlet 31.

 Reversed flow on 13 faces (29.9% area) of pressure-outlet 32.

 Reversed flow on 6 faces (13.0% area) of pressure-outlet 33.
    57  3.7742e-02  1.6030e-05  1.4941e-05  1.5379e-16  1.9799e-04  1.3104e-03  0.0000e+00  0.0000e+00  0.0000e+00  0.0000e+00  0:16:50   43

 Reversed flow on 87 faces (83.1% area) of pressure-outlet 31.

 Reversed flow on 13 faces (29.9% area) of pressure-outlet 32.

 Reversed flow on 6 faces (13.0% area) of pressure-outlet 33.
    58  3.5417e-02  1.4962e-05  1.3959e-05  1.5160e-16  1.8263e-04  1.2312e-03  0.0000e+00  0.0000e+00  0.0000e+00  0.0000e+00  0:16:31   42

 Reversed flow on 87 faces (83.1% area) of pressure-outlet 31.

 Reversed flow on 13 faces (29.9% area) of pressure-outlet 32.

 Reversed flow on 6 faces (13.0% area) of pressure-outlet 33.
    59  3.3219e-02  1.3930e-05  1.2997e-05  1.5168e-16  1.6023e-04  1.0740e-03  0.0000e+00  0.0000e+00  0.0000e+00  0.0000e+00  0:16:03   41

 Reversed flow on 87 faces (83.1% area) of pressure-outlet 31.

 Reversed flow on 13 faces (29.9% area) of pressure-outlet 32.

 Reversed flow on 6 faces (13.0% area) of pressure-outlet 33.
    60  3.0484e-02  1.2792e-05  1.1925e-05  1.5399e-16  1.6763e-04  1.1142e-03  0.0000e+00  0.0000e+00  0.0000e+00  0.0000e+00  0:15:43   40

 Reversed flow on 87 faces (83.1% area) of pressure-outlet 31.

 Reversed flow on 13 faces (29.9% area) of pressure-outlet 32.

 Reversed flow on 6 faces (13.0% area) of pressure-outlet 33.
    61  2.9118e-02  1.2124e-05  1.1318e-05  1.5519e-16  1.3764e-04  9.3663e-04  0.0000e+00  0.0000e+00  0.0000e+00  0.0000e+00  0:15:15   39

 Reversed flow on 87 faces (83.1% area) of pressure-outlet 31.

 Reversed flow on 13 faces (29.9% area) of pressure-outlet 32.

 Reversed flow on 6 faces (13.0% area) of pressure-outlet 33.
    62  2.6504e-02  1.1117e-05  1.0355e-05  1.5415e-16  1.4722e-04  9.6714e-04  0.0000e+00  0.0000e+00  0.0000e+00  0.0000e+00  0:14:56   38

 Reversed flow on 87 faces (83.1% area) of pressure-outlet 31.

 Reversed flow on 13 faces (29.9% area) of pressure-outlet 32.

 Reversed flow on 6 faces (13.0% area) of pressure-outlet 33.
    63  2.6019e-02  1.0538e-05  9.8545e-06  1.5474e-16  1.1196e-04  7.7087e-04  0.0000e+00  0.0000e+00  0.0000e+00  0.0000e+00  0:14:28   37

 Reversed flow on 87 faces (83.1% area) of pressure-outlet 31.

 Reversed flow on 13 faces (29.9% area) of pressure-outlet 32.

 Reversed flow on 6 faces (13.0% area) of pressure-outlet 33.
    64  2.3439e-02  9.5113e-06  8.8623e-06  1.5415e-16  1.2012e-04  7.8570e-04  0.0000e+00  0.0000e+00  0.0000e+00  0.0000e+00  0:14:01   36

 Reversed flow on 87 faces (83.1% area) of pressure-outlet 31.

 Reversed flow on 13 faces (29.9% area) of pressure-outlet 32.

 Reversed flow on 6 faces (13.0% area) of pressure-outlet 33.
    65  2.2263e-02  8.9191e-06  8.3287e-06  1.5349e-16  1.0287e-04  7.0255e-04  0.0000e+00  0.0000e+00  0.0000e+00  0.0000e+00  0:13:35   35

 Reversed flow on 87 faces (83.1% area) of pressure-outlet 31.

 Reversed flow on 13 faces (29.9% area) of pressure-outlet 32.

 Reversed flow on 6 faces (13.0% area) of pressure-outlet 33.
    66  2.0540e-02  8.1968e-06  7.6420e-06  1.5400e-16  9.6240e-05  6.3790e-04  0.0000e+00  0.0000e+00  0.0000e+00  0.0000e+00  0:13:10   34

 Reversed flow on 87 faces (83.1% area) of pressure-outlet 31.

 Reversed flow on 13 faces (29.9% area) of pressure-outlet 32.

 Reversed flow on 6 faces (13.0% area) of pressure-outlet 33.

  iter  continuity  x-velocity  y-velocity      energy           k     epsilon         wbc         rbc    platelet      plasma     time/iter
    67  1.8977e-02  7.5603e-06  7.0470e-06  1.5474e-16  9.4969e-05  6.3650e-04  0.0000e+00  0.0000e+00  0.0000e+00  0.0000e+00  0:12:52   33

 Reversed flow on 87 faces (83.1% area) of pressure-outlet 31.

 Reversed flow on 13 faces (29.9% area) of pressure-outlet 32.

 Reversed flow on 6 faces (13.0% area) of pressure-outlet 33.
    68  1.7963e-02  7.0835e-06  6.6072e-06  1.5253e-16  8.2363e-05  5.5488e-04  0.0000e+00  0.0000e+00  0.0000e+00  0.0000e+00  0:12:26   32

 Reversed flow on 87 faces (83.1% area) of pressure-outlet 31.

 Reversed flow on 13 faces (29.9% area) of pressure-outlet 32.

 Reversed flow on 6 faces (13.0% area) of pressure-outlet 33.
    69  1.6542e-02  6.5246e-06  6.0779e-06  1.5598e-16  7.7208e-05  5.1671e-04  0.0000e+00  0.0000e+00  0.0000e+00  0.0000e+00  0:12:01   31

 Reversed flow on 87 faces (83.1% area) of pressure-outlet 31.

 Reversed flow on 13 faces (29.9% area) of pressure-outlet 32.

 Reversed flow on 6 faces (13.0% area) of pressure-outlet 33.
    70  1.5284e-02  6.0313e-06  5.6173e-06  1.5575e-16  7.6307e-05  5.0991e-04  0.0000e+00  0.0000e+00  0.0000e+00  0.0000e+00  0:11:42   30

 Reversed flow on 87 faces (83.1% area) of pressure-outlet 31.

 Reversed flow on 13 faces (29.9% area) of pressure-outlet 32.

 Reversed flow on 6 faces (13.0% area) of pressure-outlet 33.
    71  1.4476e-02  5.6680e-06  5.2832e-06  1.5304e-16  6.6384e-05  4.4890e-04  0.0000e+00  0.0000e+00  0.0000e+00  0.0000e+00  0:11:16   29

 Reversed flow on 87 faces (83.1% area) of pressure-outlet 31.

 Reversed flow on 13 faces (29.9% area) of pressure-outlet 32.

 Reversed flow on 6 faces (13.0% area) of pressure-outlet 33.
    72  1.3365e-02  5.2336e-06  4.8741e-06  1.5069e-16  6.6382e-05  4.4248e-04  0.0000e+00  0.0000e+00  0.0000e+00  0.0000e+00  0:10:51   28

 Reversed flow on 87 faces (83.1% area) of pressure-outlet 31.

 Reversed flow on 13 faces (29.9% area) of pressure-outlet 32.

 Reversed flow on 6 faces (13.0% area) of pressure-outlet 33.
    73  1.2641e-02  4.9270e-06  4.5923e-06  1.5405e-16  5.7699e-05  3.9207e-04  0.0000e+00  0.0000e+00  0.0000e+00  0.0000e+00  0:10:32   27

 Reversed flow on 87 faces (83.1% area) of pressure-outlet 31.

 Reversed flow on 13 faces (29.9% area) of pressure-outlet 32.

 Reversed flow on 6 faces (13.0% area) of pressure-outlet 33.
    74  1.1651e-02  4.5538e-06  4.2400e-06  1.5155e-16  5.7757e-05  3.8472e-04  0.0000e+00  0.0000e+00  0.0000e+00  0.0000e+00  0:10:06   26

 Reversed flow on 87 faces (83.1% area) of pressure-outlet 31.

 Reversed flow on 13 faces (29.9% area) of pressure-outlet 32.

 Reversed flow on 6 faces (13.0% area) of pressure-outlet 33.
    75  1.1008e-02  4.2912e-06  3.9989e-06  1.5282e-16  5.0321e-05  3.4244e-04  0.0000e+00  0.0000e+00  0.0000e+00  0.0000e+00  0:09:41   25

 Reversed flow on 87 faces (83.1% area) of pressure-outlet 31.

 Reversed flow on 13 faces (29.9% area) of pressure-outlet 32.

 Reversed flow on 6 faces (13.0% area) of pressure-outlet 33.
    76  1.0154e-02  3.9703e-06  3.6967e-06  1.5494e-16  5.0364e-05  3.3549e-04  0.0000e+00  0.0000e+00  0.0000e+00  0.0000e+00  0:09:22   24

 Reversed flow on 87 faces (83.1% area) of pressure-outlet 31.

 Reversed flow on 13 faces (29.9% area) of pressure-outlet 32.

 Reversed flow on 6 faces (13.0% area) of pressure-outlet 33.
    77  9.5947e-03  3.7441e-06  3.4895e-06  1.5258e-16  4.3919e-05  2.9904e-04  0.0000e+00  0.0000e+00  0.0000e+00  0.0000e+00  0:08:56   23

 Reversed flow on 87 faces (83.1% area) of pressure-outlet 31.

 Reversed flow on 13 faces (29.9% area) of pressure-outlet 32.

 Reversed flow on 6 faces (13.0% area) of pressure-outlet 33.

  iter  continuity  x-velocity  y-velocity      energy           k     epsilon         wbc         rbc    platelet      plasma     time/iter
    78  8.8488e-03  3.4668e-06  3.2278e-06  1.5386e-16  4.3969e-05  2.9293e-04  0.0000e+00  0.0000e+00  0.0000e+00  0.0000e+00  0:08:36   22

 Reversed flow on 87 faces (83.1% area) of pressure-outlet 31.

 Reversed flow on 13 faces (29.9% area) of pressure-outlet 32.

 Reversed flow on 6 faces (13.0% area) of pressure-outlet 33.
    79  8.3642e-03  3.2712e-06  3.0482e-06  1.5171e-16  3.8346e-05  2.6113e-04  0.0000e+00  0.0000e+00  0.0000e+00  0.0000e+00  0:08:11   21

 Reversed flow on 87 faces (83.1% area) of pressure-outlet 31.

 Reversed flow on 13 faces (29.9% area) of pressure-outlet 32.

 Reversed flow on 6 faces (13.0% area) of pressure-outlet 33.
    80  7.6975e-03  3.0306e-06  2.8201e-06  1.5351e-16  3.8410e-05  2.5589e-04  0.0000e+00  0.0000e+00  0.0000e+00  0.0000e+00  0:07:46   20

 Reversed flow on 87 faces (83.1% area) of pressure-outlet 31.

 Reversed flow on 13 faces (29.9% area) of pressure-outlet 32.

 Reversed flow on 6 faces (13.0% area) of pressure-outlet 33.
    81  7.2727e-03  2.8606e-06  2.6641e-06  1.5201e-16  3.3562e-05  2.2839e-04  0.0000e+00  0.0000e+00  0.0000e+00  0.0000e+00  0:07:25   19

 Reversed flow on 87 faces (83.1% area) of pressure-outlet 31.

 Reversed flow on 13 faces (29.9% area) of pressure-outlet 32.

 Reversed flow on 6 faces (13.0% area) of pressure-outlet 33.
    82  6.7222e-03  2.6512e-06  2.4662e-06  1.5177e-16  3.3589e-05  2.2375e-04  0.0000e+00  0.0000e+00  0.0000e+00  0.0000e+00  0:07:00   18

 Reversed flow on 87 faces (83.1% area) of pressure-outlet 31.

 Reversed flow on 13 faces (29.9% area) of pressure-outlet 32.

 Reversed flow on 6 faces (13.0% area) of pressure-outlet 33.
    83  6.3704e-03  2.5030e-06  2.3302e-06  1.5169e-16  2.9356e-05  1.9968e-04  0.0000e+00  0.0000e+00  0.0000e+00  0.0000e+00  0:06:36   17

 Reversed flow on 87 faces (83.1% area) of pressure-outlet 31.

 Reversed flow on 13 faces (29.9% area) of pressure-outlet 32.

 Reversed flow on 6 faces (13.0% area) of pressure-outlet 33.
    84  5.8953e-03  2.3199e-06  2.1573e-06  1.5053e-16  2.9373e-05  1.9562e-04  0.0000e+00  0.0000e+00  0.0000e+00  0.0000e+00  0:06:15   16

 Reversed flow on 87 faces (83.1% area) of pressure-outlet 31.

 Reversed flow on 13 faces (29.9% area) of pressure-outlet 32.

 Reversed flow on 6 faces (13.0% area) of pressure-outlet 33.
    85  5.5917e-03  2.1900e-06  2.0385e-06  1.5247e-16  2.5671e-05  1.7456e-04  0.0000e+00  0.0000e+00  0.0000e+00  0.0000e+00  0:05:50   15

 Reversed flow on 87 faces (83.1% area) of pressure-outlet 31.

 Reversed flow on 13 faces (29.9% area) of pressure-outlet 32.

 Reversed flow on 6 faces (13.0% area) of pressure-outlet 33.
    86  5.1813e-03  2.0296e-06  1.8874e-06  1.5030e-16  2.4135e-05  1.6125e-04  0.0000e+00  0.0000e+00  0.0000e+00  0.0000e+00  0:05:31   14

 Reversed flow on 87 faces (83.1% area) of pressure-outlet 31.

 Reversed flow on 13 faces (29.9% area) of pressure-outlet 32.

 Reversed flow on 6 faces (13.0% area) of pressure-outlet 33.
    87  4.8155e-03  1.8864e-06  1.7542e-06  1.5054e-16  2.3940e-05  1.6057e-04  0.0000e+00  0.0000e+00  0.0000e+00  0.0000e+00  0:05:24   13

 Reversed flow on 87 faces (83.1% area) of pressure-outlet 31.

 Reversed flow on 13 faces (29.9% area) of pressure-outlet 32.

 Reversed flow on 6 faces (13.0% area) of pressure-outlet 33.
    88  4.5800e-03  1.7812e-06  1.6580e-06  1.5200e-16  2.0915e-05  1.4139e-04  0.0000e+00  0.0000e+00  0.0000e+00  0.0000e+00  0:05:04   12

 Reversed flow on 87 faces (83.1% area) of pressure-outlet 31.

 Reversed flow on 13 faces (29.9% area) of pressure-outlet 32.

 Reversed flow on 6 faces (13.0% area) of pressure-outlet 33.

  iter  continuity  x-velocity  y-velocity      energy           k     epsilon         wbc         rbc    platelet      plasma     time/iter
    89  4.2493e-03  1.6515e-06  1.5357e-06  1.5339e-16  1.9689e-05  1.3185e-04  0.0000e+00  0.0000e+00  0.0000e+00  0.0000e+00  0:04:38   11

 Reversed flow on 87 faces (83.1% area) of pressure-outlet 31.

 Reversed flow on 13 faces (29.9% area) of pressure-outlet 32.

 Reversed flow on 6 faces (13.0% area) of pressure-outlet 33.
    90  3.9637e-03  1.5357e-06  1.4281e-06  1.5072e-16  1.9523e-05  1.3071e-04  0.0000e+00  0.0000e+00  0.0000e+00  0.0000e+00  0:04:18   10

 Reversed flow on 87 faces (83.1% area) of pressure-outlet 31.

 Reversed flow on 13 faces (29.9% area) of pressure-outlet 32.

 Reversed flow on 6 faces (13.0% area) of pressure-outlet 33.
    91  3.7851e-03  1.4509e-06  1.3504e-06  1.5181e-16  1.5949e-05  1.0830e-04  0.0000e+00  0.0000e+00  0.0000e+00  0.0000e+00  0:03:47    9

 Reversed flow on 87 faces (83.1% area) of pressure-outlet 31.

 Reversed flow on 13 faces (29.9% area) of pressure-outlet 32.

 Reversed flow on 6 faces (13.0% area) of pressure-outlet 33.
    92  3.4471e-03  1.3243e-06  1.2298e-06  1.5087e-16  1.7167e-05  1.1334e-04  0.0000e+00  0.0000e+00  0.0000e+00  0.0000e+00  0:03:22    8

 Reversed flow on 87 faces (83.1% area) of pressure-outlet 31.

 Reversed flow on 13 faces (29.9% area) of pressure-outlet 32.

 Reversed flow on 6 faces (13.0% area) of pressure-outlet 33.
    93  3.3056e-03  1.2564e-06  1.1692e-06  1.5205e-16  1.4831e-05  1.0094e-04  0.0000e+00  0.0000e+00  0.0000e+00  0.0000e+00  0:02:55    7

 Reversed flow on 87 faces (83.1% area) of pressure-outlet 31.

 Reversed flow on 13 faces (29.9% area) of pressure-outlet 32.

 Reversed flow on 6 faces (13.0% area) of pressure-outlet 33.
    94  3.0888e-03  1.1666e-06  1.0844e-06  1.5038e-16  1.3981e-05  9.3137e-05  0.0000e+00  0.0000e+00  0.0000e+00  0.0000e+00  0:02:27    6

 Reversed flow on 87 faces (83.1% area) of pressure-outlet 31.

 Reversed flow on 13 faces (29.9% area) of pressure-outlet 32.

 Reversed flow on 6 faces (13.0% area) of pressure-outlet 33.
    95  2.8944e-03  1.0869e-06  1.0102e-06  1.5182e-16  1.3044e-05  8.7911e-05  0.0000e+00  0.0000e+00  0.0000e+00  0.0000e+00  0:02:01    5

 Reversed flow on 87 faces (83.1% area) of pressure-outlet 31.

 Reversed flow on 13 faces (29.9% area) of pressure-outlet 32.

 Reversed flow on 6 faces (13.0% area) of pressure-outlet 33.
    96  2.7188e-03  1.0126e-06  9.4118e-07  1.5199e-16  1.2178e-05  8.1443e-05  0.0000e+00  0.0000e+00  0.0000e+00  0.0000e+00  0:01:36    4

 Reversed flow on 87 faces (83.1% area) of pressure-outlet 31.

 Reversed flow on 13 faces (29.9% area) of pressure-outlet 32.

 Reversed flow on 6 faces (13.0% area) of pressure-outlet 33.
    97  2.5544e-03  9.4405e-07  8.7760e-07  1.5278e-16  1.1383e-05  7.6438e-05  0.0000e+00  0.0000e+00  0.0000e+00  0.0000e+00  0:01:11    3

 Reversed flow on 87 faces (83.1% area) of pressure-outlet 31.

 Reversed flow on 13 faces (29.9% area) of pressure-outlet 32.

 Reversed flow on 6 faces (13.0% area) of pressure-outlet 33.
    98  2.3993e-03  8.8066e-07  8.1857e-07  1.5074e-16  1.0634e-05  7.1264e-05  0.0000e+00  0.0000e+00  0.0000e+00  0.0000e+00  0:00:48    2

 Reversed flow on 87 faces (83.1% area) of pressure-outlet 31.

 Reversed flow on 13 faces (29.9% area) of pressure-outlet 32.

 Reversed flow on 6 faces (13.0% area) of pressure-outlet 33.
    99  2.2509e-03  8.2203e-07  7.6389e-07  1.5262e-16  9.9451e-06  6.6720e-05  0.0000e+00  0.0000e+00  0.0000e+00  0.0000e+00  0:00:24    1

 Reversed flow on 87 faces (83.1% area) of pressure-outlet 31.

 Reversed flow on 13 faces (29.9% area) of pressure-outlet 32.

 Reversed flow on 6 faces (13.0% area) of pressure-outlet 33.

  iter  continuity  x-velocity  y-velocity      energy           k     epsilon         wbc         rbc    platelet      plasma     time/iter
   100  2.1080e-03  7.6773e-07  7.1326e-07  1.5093e-16  9.3011e-06  6.2386e-05  0.0000e+00  0.0000e+00  0.0000e+00  0.0000e+00  0:00:00    0

Calculation complete.
(cx-gui-do cx-activate-item "Information*OK")
(cx-gui-do cx-activate-item "Ribbon*Frame1*Frame6(Results)*Table1*Table3(Graphics)*PushButton5(Particle Tracks)")
(cx-gui-do cx-activate-item "MenuBar*PopupMenuParticle Tracks*New...")
(cx-gui-do cx-set-toggle-button2 "Particle Tracks*Table2*Frame1*Frame1*ToggleBox1(Options)*CheckButton3(Draw Mesh)" #t)
(cx-gui-do cx-activate-item "Particle Tracks*Table2*Frame1*Frame1*ToggleBox1(Options)*CheckButton3(Draw Mesh)")
(cx-gui-do cx-set-list-selections "Mesh Display*Table1*Frame3*List1(Surfaces)" '( 0 1 14 15 16 17 18 19 20))
(cx-gui-do cx-activate-item "Mesh Display*Table1*Frame3*List1(Surfaces)")
(cx-gui-do cx-set-list-selections "Mesh Display*Table1*Frame3*List1(Surfaces)" '( 0 1 14 15 16 17 18 19 20))
(cx-gui-do cx-activate-item "Mesh Display*Table1*Frame3*List1(Surfaces)")
(cx-gui-do cx-set-list-selections "Mesh Display*Table1*Frame3*List1(Surfaces)" '( 0 1 14 15 16 17 18 19 20))
(cx-gui-do cx-activate-item "Mesh Display*Table1*Frame3*List1(Surfaces)")
(cx-gui-do cx-activate-item "Mesh Display*PanelButtons*PushButton1(OK)")
(cx-gui-do cx-activate-item "Mesh Display*PanelButtons*PushButton2(Cancel)")
(cx-gui-do cx-set-list-selections "Particle Tracks*Frame3*Table1*DropDownList2" '( 14))
(cx-gui-do cx-activate-item "Particle Tracks*Frame3*Table1*DropDownList2")
(cx-gui-do cx-set-list-selections "Particle Tracks*Frame3*List5(Release from Injections)" '( 0))
(cx-gui-do cx-activate-item "Particle Tracks*Frame3*List5(Release from Injections)")
(cx-gui-do cx-set-list-selections "Particle Tracks*Frame3*List5(Release from Injections)" '( 0 1))
(cx-gui-do cx-activate-item "Particle Tracks*Frame3*List5(Release from Injections)")
(cx-gui-do cx-activate-item "ToolBar*View*autoscale")
(cx-gui-do cx-set-toggle-button2 "Particle Tracks*Table2*Frame1*Frame1*ToggleBox1(Options)*CheckButton3(Draw Mesh)" #f)
(cx-gui-do cx-activate-item "Particle Tracks*Table2*Frame1*Frame1*ToggleBox1(Options)*CheckButton3(Draw Mesh)")
(cx-gui-do cx-set-toggle-button2 "Particle Tracks*Table2*Frame1*Frame1*ToggleBox1(Options)*CheckButton3(Draw Mesh)" #t)
(cx-gui-do cx-activate-item "Particle Tracks*Table2*Frame1*Frame1*ToggleBox1(Options)*CheckButton3(Draw Mesh)")
(cx-gui-do cx-activate-item "Mesh Display*PanelButtons*PushButton2(Cancel)")
[...]
 Reversed flow on 14 faces (29.0% area) of pressure-outlet 33.
    50  1.5497e-01  1.5917e-04  1.4091e-04  1.4580e-16  4.5454e-03  9.0889e-03  0.0000e+00  0.0000e+00  0.0000e+00  0.0000e+00  0:17:44   50

 Reversed flow on 92 faces (87.6% area) of pressure-outlet 31.

 Reversed flow on 20 faces (39.8% area) of pressure-outlet 32.

 Reversed flow on 14 faces (29.0% area) of pressure-outlet 33.
    51  1.5144e-01  1.6157e-04  1.4411e-04  1.4447e-16  4.4639e-03  5.5832e-02  0.0000e+00  0.0000e+00  0.0000e+00  0.0000e+00  0:17:30   49

 Reversed flow on 92 faces (87.6% area) of pressure-outlet 31.

 Reversed flow on 23 faces (46.2% area) of pressure-outlet 32.

 Reversed flow on 14 faces (28.6% area) of pressure-outlet 33.
    52  1.5147e-01  1.6340e-04  1.4682e-04  1.4766e-16  3.9094e-03  1.4180e-02  0.0000e+00  0.0000e+00  0.0000e+00  0.0000e+00  0:17:05   48

 Reversed flow on 92 faces (87.6% area) of pressure-outlet 31.

 Reversed flow on 23 faces (46.2% area) of pressure-outlet 32.

 Reversed flow on 15 faces (30.9% area) of pressure-outlet 33.
    53  1.5369e-01  1.6413e-04  1.4845e-04  1.4873e-16  3.5591e-03  7.1814e-03  0.0000e+00  0.0000e+00  0.0000e+00  0.0000e+00  0:16:40   47

 Reversed flow on 92 faces (87.6% area) of pressure-outlet 31.

 Reversed flow on 20 faces (39.8% area) of pressure-outlet 32.

 Reversed flow on 15 faces (30.9% area) of pressure-outlet 33.
    54  1.5593e-01  1.6345e-04  1.4867e-04  1.4875e-16  3.3088e-03  6.7699e-03  0.0000e+00  0.0000e+00  0.0000e+00  0.0000e+00  0:16:25   46

 Reversed flow on 92 faces (87.6% area) of pressure-outlet 31.

 Reversed flow on 21 faces (41.7% area) of pressure-outlet 32.

 Reversed flow on 14 faces (28.6% area) of pressure-outlet 33.
    55  1.5954e-01  1.6124e-04  1.4721e-04  1.4796e-16  3.1224e-03  6.6467e-03  0.0000e+00  0.0000e+00  0.0000e+00  0.0000e+00  0:16:00   45

 Reversed flow on 91 faces (86.6% area) of pressure-outlet 31.

 Reversed flow on 23 faces (46.2% area) of pressure-outlet 32.

 Reversed flow on 15 faces (30.9% area) of pressure-outlet 33.

  iter  continuity  x-velocity  y-velocity      energy           k     epsilon         wbc         rbc    platelet      plasma     time/iter
    56  1.6407e-01  1.5684e-04  1.4329e-04  1.4707e-16  3.0728e-03  7.0976e-03  0.0000e+00  0.0000e+00  0.0000e+00  0.0000e+00  0:15:45   44

 Reversed flow on 90 faces (85.7% area) of pressure-outlet 31.

 Reversed flow on 23 faces (46.2% area) of pressure-outlet 32.

 Reversed flow on 14 faces (28.6% area) of pressure-outlet 33.
    57  1.6747e-01  1.5085e-04  1.3755e-04  1.4775e-16  3.1075e-03  7.4585e-03  0.0000e+00  0.0000e+00  0.0000e+00  0.0000e+00  0:15:19   43

 Reversed flow on 91 faces (86.7% area) of pressure-outlet 31.

 Reversed flow on 23 faces (46.2% area) of pressure-outlet 32.

 Reversed flow on 15 faces (30.9% area) of pressure-outlet 33.
    58  1.7117e-01  1.4367e-04  1.3075e-04  1.4758e-16  3.1200e-03  7.8227e-03  0.0000e+00  0.0000e+00  0.0000e+00  0.0000e+00  0:15:03   42

 Reversed flow on 91 faces (86.7% area) of pressure-outlet 31.

 Reversed flow on 21 faces (41.3% area) of pressure-outlet 32.

 Reversed flow on 14 faces (28.2% area) of pressure-outlet 33.
    59  1.7305e-01  1.3518e-04  1.2303e-04  1.4528e-16  2.9202e-03  7.3555e-03  0.0000e+00  0.0000e+00  0.0000e+00  0.0000e+00  0:14:37   41

 Reversed flow on 91 faces (86.7% area) of pressure-outlet 31.

 Reversed flow on 21 faces (41.3% area) of pressure-outlet 32.

 Reversed flow on 14 faces (28.6% area) of pressure-outlet 33.
    60  1.6798e-01  1.1834e-04  1.0732e-04  1.4729e-16  2.8087e-03  6.9783e-03  0.0000e+00  0.0000e+00  0.0000e+00  0.0000e+00  0:14:13   40

 Reversed flow on 91 faces (86.7% area) of pressure-outlet 31.

 Reversed flow on 23 faces (46.2% area) of pressure-outlet 32.

 Reversed flow on 15 faces (30.9% area) of pressure-outlet 33.
    61  1.6464e-01  1.0662e-04  9.6473e-05  1.4627e-16  2.6794e-03  6.7111e-03  0.0000e+00  0.0000e+00  0.0000e+00  0.0000e+00  0:13:49   39

 Reversed flow on 91 faces (86.7% area) of pressure-outlet 31.

 Reversed flow on 23 faces (46.2% area) of pressure-outlet 32.

 Reversed flow on 15 faces (30.9% area) of pressure-outlet 33.
    62  1.6117e-01  9.7940e-05  8.8167e-05  1.4906e-16  2.5235e-03  6.6620e-03  0.0000e+00  0.0000e+00  0.0000e+00  0.0000e+00  0:13:26   38

 Reversed flow on 91 faces (86.7% area) of pressure-outlet 31.

 Reversed flow on 22 faces (44.3% area) of pressure-outlet 32.

 Reversed flow on 14 faces (28.6% area) of pressure-outlet 33.
    63  1.5617e-01  9.1263e-05  8.1985e-05  1.4578e-16  2.3497e-03  6.2049e-03  0.0000e+00  0.0000e+00  0.0000e+00  0.0000e+00  0:13:03   37

 Reversed flow on 91 faces (86.7% area) of pressure-outlet 31.

 Reversed flow on 23 faces (46.2% area) of pressure-outlet 32.

 Reversed flow on 14 faces (28.2% area) of pressure-outlet 33.
    64  1.5118e-01  8.5901e-05  7.7205e-05  1.4665e-16  2.1650e-03  6.0347e-03  0.0000e+00  0.0000e+00  0.0000e+00  0.0000e+00  0:12:34   36

 Reversed flow on 91 faces (86.7% area) of pressure-outlet 31.

 Reversed flow on 22 faces (44.3% area) of pressure-outlet 32.

 Reversed flow on 14 faces (28.2% area) of pressure-outlet 33.
    65  1.4724e-01  8.1306e-05  7.3284e-05  1.4554e-16  1.9835e-03  5.6497e-03  0.0000e+00  0.0000e+00  0.0000e+00  0.0000e+00  0:12:13   35

 Reversed flow on 91 faces (86.7% area) of pressure-outlet 31.

 Reversed flow on 21 faces (42.8% area) of pressure-outlet 32.

 Reversed flow on 14 faces (28.2% area) of pressure-outlet 33.
    66  1.4193e-01  7.6613e-05  6.9700e-05  1.4673e-16  1.8143e-03  5.3534e-03  0.0000e+00  0.0000e+00  0.0000e+00  0.0000e+00  0:11:53   34

 Reversed flow on 91 faces (86.7% area) of pressure-outlet 31.

 Reversed flow on 22 faces (44.7% area) of pressure-outlet 32.

 Reversed flow on 13 faces (25.9% area) of pressure-outlet 33.

  iter  continuity  x-velocity  y-velocity      energy           k     epsilon         wbc         rbc    platelet      plasma     time/iter
    67  1.3783e-01  7.2180e-05  6.6061e-05  1.4705e-16  1.6614e-03  4.7936e-03  0.0000e+00  0.0000e+00  0.0000e+00  0.0000e+00  0:11:32   33

 Reversed flow on 91 faces (86.7% area) of pressure-outlet 31.

 Reversed flow on 23 faces (46.2% area) of pressure-outlet 32.

 Reversed flow on 14 faces (28.2% area) of pressure-outlet 33.
    68  1.3478e-01  6.7769e-05  6.2280e-05  1.4963e-16  1.4913e-03  4.5760e-03  0.0000e+00  0.0000e+00  0.0000e+00  0.0000e+00  0:11:11   32

 Reversed flow on 91 faces (86.7% area) of pressure-outlet 31.

 Reversed flow on 23 faces (46.2% area) of pressure-outlet 32.

 Reversed flow on 14 faces (28.2% area) of pressure-outlet 33.
    69  1.2985e-01  6.3503e-05  5.8764e-05  1.4632e-16  1.3366e-03  4.1697e-03  0.0000e+00  0.0000e+00  0.0000e+00  0.0000e+00  0:10:50   31

 Reversed flow on 91 faces (86.7% area) of pressure-outlet 31.

 Reversed flow on 22 faces (44.3% area) of pressure-outlet 32.

 Reversed flow on 14 faces (28.2% area) of pressure-outlet 33.
    70  1.2372e-01  5.9275e-05  5.5383e-05  1.4737e-16  1.1906e-03  3.9290e-03  0.0000e+00  0.0000e+00  0.0000e+00  0.0000e+00  0:10:29   30

 Reversed flow on 91 faces (86.7% area) of pressure-outlet 31.

 Reversed flow on 23 faces (46.2% area) of pressure-outlet 32.

 Reversed flow on 13 faces (25.9% area) of pressure-outlet 33.
    71  1.1603e-01  5.4780e-05  5.1608e-05  1.4704e-16  1.0671e-03  3.4208e-03  0.0000e+00  0.0000e+00  0.0000e+00  0.0000e+00  0:10:03   29

 Reversed flow on 91 faces (86.7% area) of pressure-outlet 31.

 Reversed flow on 23 faces (46.2% area) of pressure-outlet 32.

 Reversed flow on 15 faces (29.7% area) of pressure-outlet 33.
    72  1.0673e-01  4.9786e-05  4.7272e-05  1.4693e-16  9.5839e-04  3.2964e-03  0.0000e+00  0.0000e+00  0.0000e+00  0.0000e+00  0:09:43   28

 Reversed flow on 91 faces (86.7% area) of pressure-outlet 31.

 Reversed flow on 23 faces (45.9% area) of pressure-outlet 32.

 Reversed flow on 15 faces (29.7% area) of pressure-outlet 33.
    73  9.8423e-02  4.4599e-05  4.2791e-05  1.4687e-16  8.5567e-04  3.2297e-03  0.0000e+00  0.0000e+00  0.0000e+00  0.0000e+00  0:09:23   27

 Reversed flow on 91 faces (86.7% area) of pressure-outlet 31.

 Reversed flow on 23 faces (45.9% area) of pressure-outlet 32.

 Reversed flow on 14 faces (27.5% area) of pressure-outlet 33.
    74  9.0258e-02  3.9425e-05  3.8600e-05  1.4912e-16  7.6653e-04  2.6181e-03  0.0000e+00  0.0000e+00  0.0000e+00  0.0000e+00  0:09:03   26

 Reversed flow on 91 faces (86.7% area) of pressure-outlet 31.

 Reversed flow on 23 faces (45.9% area) of pressure-outlet 32.

 Reversed flow on 15 faces (29.7% area) of pressure-outlet 33.
    75  8.1718e-02  3.4354e-05  3.4441e-05  1.5131e-16  6.9886e-04  2.5861e-03  0.0000e+00  0.0000e+00  0.0000e+00  0.0000e+00  0:08:43   25

 Reversed flow on 91 faces (86.7% area) of pressure-outlet 31.

 Reversed flow on 23 faces (45.9% area) of pressure-outlet 32.

 Reversed flow on 15 faces (29.7% area) of pressure-outlet 33.
    76  7.4724e-02  2.9636e-05  3.0378e-05  1.4668e-16  6.4538e-04  2.6612e-03  0.0000e+00  0.0000e+00  0.0000e+00  0.0000e+00  0:08:22   24

 Reversed flow on 91 faces (86.7% area) of pressure-outlet 31.

 Reversed flow on 23 faces (46.2% area) of pressure-outlet 32.

 Reversed flow on 15 faces (30.1% area) of pressure-outlet 33.
    77  6.7788e-02  2.5427e-05  2.6632e-05  1.4836e-16  5.9954e-04  1.9725e-03  0.0000e+00  0.0000e+00  0.0000e+00  0.0000e+00  0:08:02   23

 Reversed flow on 91 faces (86.7% area) of pressure-outlet 31.

 Reversed flow on 23 faces (46.2% area) of pressure-outlet 32.

 Reversed flow on 16 faces (32.4% area) of pressure-outlet 33.

  iter  continuity  x-velocity  y-velocity      energy           k     epsilon         wbc         rbc    platelet      plasma     time/iter
    78  6.1409e-02  2.2194e-05  2.3432e-05  1.4811e-16  5.5853e-04  1.9729e-03  0.0000e+00  0.0000e+00  0.0000e+00  0.0000e+00  0:07:41   22

 Reversed flow on 91 faces (86.7% area) of pressure-outlet 31.

 Reversed flow on 23 faces (46.2% area) of pressure-outlet 32.

 Reversed flow on 16 faces (32.4% area) of pressure-outlet 33.
    79  5.6931e-02  1.9714e-05  2.0716e-05  1.4989e-16  5.2108e-04  2.1266e-03  0.0000e+00  0.0000e+00  0.0000e+00  0.0000e+00  0:07:20   21

 Reversed flow on 91 faces (86.7% area) of pressure-outlet 31.

 Reversed flow on 24 faces (47.7% area) of pressure-outlet 32.

 Reversed flow on 15 faces (30.1% area) of pressure-outlet 33.
    80  5.2196e-02  1.7811e-05  1.8455e-05  1.4562e-16  4.8144e-04  1.4293e-03  0.0000e+00  0.0000e+00  0.0000e+00  0.0000e+00  0:06:55   20

 Reversed flow on 91 faces (86.7% area) of pressure-outlet 31.

 Reversed flow on 24 faces (47.7% area) of pressure-outlet 32.

 Reversed flow on 15 faces (29.7% area) of pressure-outlet 33.
    81  4.7932e-02  1.6397e-05  1.6681e-05  1.4896e-16  4.4327e-04  1.5132e-03  0.0000e+00  0.0000e+00  0.0000e+00  0.0000e+00  0:06:36   19

 Reversed flow on 91 faces (86.7% area) of pressure-outlet 31.

 Reversed flow on 23 faces (44.7% area) of pressure-outlet 32.

 Reversed flow on 15 faces (29.7% area) of pressure-outlet 33.
    82  4.5161e-02  1.5486e-05  1.5390e-05  1.4727e-16  4.0635e-04  1.6815e-03  0.0000e+00  0.0000e+00  0.0000e+00  0.0000e+00  0:06:15   18

 Reversed flow on 91 faces (86.7% area) of pressure-outlet 31.

 Reversed flow on 24 faces (47.4% area) of pressure-outlet 32.

 Reversed flow on 14 faces (27.5% area) of pressure-outlet 33.
    83  4.1910e-02  1.4940e-05  1.4482e-05  1.4846e-16  3.7072e-04  1.0548e-03  0.0000e+00  0.0000e+00  0.0000e+00  0.0000e+00  0:05:55   17

 Reversed flow on 91 faces (86.7% area) of pressure-outlet 31.

 Reversed flow on 25 faces (49.3% area) of pressure-outlet 32.

 Reversed flow on 15 faces (29.7% area) of pressure-outlet 33.
    84  3.9081e-02  1.4725e-05  1.3945e-05  1.4859e-16  3.3878e-04  1.2068e-03  0.0000e+00  0.0000e+00  0.0000e+00  0.0000e+00  0:05:35   16

 Reversed flow on 91 faces (86.7% area) of pressure-outlet 31.

 Reversed flow on 22 faces (42.8% area) of pressure-outlet 32.

 Reversed flow on 15 faces (29.7% area) of pressure-outlet 33.
    85  3.7307e-02  1.4626e-05  1.3659e-05  1.4729e-16  3.1077e-04  1.4346e-03  0.0000e+00  0.0000e+00  0.0000e+00  0.0000e+00  0:05:11   15

 Reversed flow on 91 faces (86.7% area) of pressure-outlet 31.

 Reversed flow on 23 faces (44.7% area) of pressure-outlet 32.

 Reversed flow on 15 faces (30.1% area) of pressure-outlet 33.
    86  3.4787e-02  1.4496e-05  1.3427e-05  1.4769e-16  2.8514e-04  8.5958e-04  0.0000e+00  0.0000e+00  0.0000e+00  0.0000e+00  0:04:51   14

 Reversed flow on 91 faces (86.7% area) of pressure-outlet 31.

 Reversed flow on 23 faces (44.7% area) of pressure-outlet 32.

 Reversed flow on 16 faces (32.4% area) of pressure-outlet 33.
    87  3.2989e-02  1.4297e-05  1.3151e-05  1.4857e-16  2.6281e-04  1.0425e-03  0.0000e+00  0.0000e+00  0.0000e+00  0.0000e+00  0:04:31   13

 Reversed flow on 91 faces (86.7% area) of pressure-outlet 31.

 Reversed flow on 23 faces (44.7% area) of pressure-outlet 32.

 Reversed flow on 16 faces (32.4% area) of pressure-outlet 33.
    88  3.2456e-02  1.4039e-05  1.2806e-05  1.5111e-16  2.4492e-04  1.2666e-03  0.0000e+00  0.0000e+00  0.0000e+00  0.0000e+00  0:04:10   12

 Reversed flow on 91 faces (86.7% area) of pressure-outlet 31.

 Reversed flow on 24 faces (47.4% area) of pressure-outlet 32.

 Reversed flow on 15 faces (30.1% area) of pressure-outlet 33.

  iter  continuity  x-velocity  y-velocity      energy           k     epsilon         wbc         rbc    platelet      plasma     time/iter
    89  3.0474e-02  1.3671e-05  1.2362e-05  1.4814e-16  2.2802e-04  6.9822e-04  0.0000e+00  0.0000e+00  0.0000e+00  0.0000e+00  0:03:50   11

 Reversed flow on 91 faces (86.7% area) of pressure-outlet 31.

 Reversed flow on 24 faces (47.4% area) of pressure-outlet 32.

 Reversed flow on 16 faces (32.4% area) of pressure-outlet 33.
    90  2.8313e-02  1.3230e-05  1.1827e-05  1.5132e-16  2.1586e-04  8.9536e-04  0.0000e+00  0.0000e+00  0.0000e+00  0.0000e+00  0:03:29   10

 Reversed flow on 91 faces (86.7% area) of pressure-outlet 31.

 Reversed flow on 23 faces (45.9% area) of pressure-outlet 32.

 Reversed flow on 15 faces (29.7% area) of pressure-outlet 33.
    91  2.7312e-02  1.2779e-05  1.1237e-05  1.4894e-16  2.0639e-04  1.1142e-03  0.0000e+00  0.0000e+00  0.0000e+00  0.0000e+00  0:03:07    9

 Reversed flow on 91 faces (86.7% area) of pressure-outlet 31.

 Reversed flow on 24 faces (47.7% area) of pressure-outlet 32.

 Reversed flow on 15 faces (30.1% area) of pressure-outlet 33.
    92  2.5679e-02  1.2347e-05  1.0576e-05  1.5086e-16  1.9702e-04  5.8319e-04  0.0000e+00  0.0000e+00  0.0000e+00  0.0000e+00  0:02:46    8

 Reversed flow on 91 faces (86.7% area) of pressure-outlet 31.

 Reversed flow on 23 faces (45.9% area) of pressure-outlet 32.

 Reversed flow on 16 faces (32.4% area) of pressure-outlet 33.
    93  2.4386e-02  1.1913e-05  9.8541e-06  1.4808e-16  1.8520e-04  8.0947e-04  0.0000e+00  0.0000e+00  0.0000e+00  0.0000e+00  0:02:26    7

 Reversed flow on 91 faces (86.7% area) of pressure-outlet 31.

 Reversed flow on 24 faces (47.4% area) of pressure-outlet 32.

 Reversed flow on 15 faces (29.7% area) of pressure-outlet 33.
    94  2.3777e-02  1.1408e-05  9.0992e-06  1.5005e-16  1.7431e-04  1.0606e-03  0.0000e+00  0.0000e+00  0.0000e+00  0.0000e+00  0:02:05    6

 Reversed flow on 91 faces (86.7% area) of pressure-outlet 31.

 Reversed flow on 25 faces (49.3% area) of pressure-outlet 32.

 Reversed flow on 15 faces (30.1% area) of pressure-outlet 33.
    95  2.2365e-02  1.0742e-05  8.3090e-06  1.4823e-16  1.6240e-04  5.6516e-04  0.0000e+00  0.0000e+00  0.0000e+00  0.0000e+00  0:01:44    5

 Reversed flow on 91 faces (86.7% area) of pressure-outlet 31.

 Reversed flow on 23 faces (45.9% area) of pressure-outlet 32.

 Reversed flow on 16 faces (32.4% area) of pressure-outlet 33.
    96  2.0966e-02  9.9067e-06  7.5240e-06  1.4638e-16  1.5155e-04  7.7784e-04  0.0000e+00  0.0000e+00  0.0000e+00  0.0000e+00  0:01:24    4

 Reversed flow on 91 faces (86.7% area) of pressure-outlet 31.

 Reversed flow on 23 faces (45.9% area) of pressure-outlet 32.

 Reversed flow on 16 faces (32.4% area) of pressure-outlet 33.
    97  2.0727e-02  9.0142e-06  6.7681e-06  1.4793e-16  1.4175e-04  1.0140e-03  0.0000e+00  0.0000e+00  0.0000e+00  0.0000e+00  0:01:02    3

 Reversed flow on 91 faces (86.7% area) of pressure-outlet 31.

 Reversed flow on 24 faces (47.7% area) of pressure-outlet 32.

 Reversed flow on 14 faces (27.5% area) of pressure-outlet 33.
    98  1.9758e-02  8.1179e-06  6.0349e-06  1.4822e-16  1.3204e-04  5.1797e-04  0.0000e+00  0.0000e+00  0.0000e+00  0.0000e+00  0:00:42    2

 Reversed flow on 91 faces (86.7% area) of pressure-outlet 31.

 Reversed flow on 24 faces (47.4% area) of pressure-outlet 32.

 Reversed flow on 15 faces (29.7% area) of pressure-outlet 33.
    99  1.8660e-02  7.2511e-06  5.3350e-06  1.4736e-16  1.2348e-04  6.9909e-04  0.0000e+00  0.0000e+00  0.0000e+00  0.0000e+00  0:00:21    1

 Reversed flow on 91 faces (86.7% area) of pressure-outlet 31.

 Reversed flow on 25 faces (49.3% area) of pressure-outlet 32.

 Reversed flow on 15 faces (29.7% area) of pressure-outlet 33.

  iter  continuity  x-velocity  y-velocity      energy           k     epsilon         wbc         rbc    platelet      plasma     time/iter
   100  1.8837e-02  6.4352e-06  4.6738e-06  1.4773e-16  1.1829e-04  9.4038e-04  0.0000e+00  0.0000e+00  0.0000e+00  0.0000e+00  0:00:00    0

Calculation complete.
(cx-gui-do cx-activate-item "Information*OK")
(cx-gui-do cx-activate-item "Ribbon*Frame1*Frame6(Results)*Table1*Table3(Graphics)*PushButton5(Particle Tracks)")
(cx-gui-do cx-activate-item "MenuBar*PopupMenuParticle Tracks*New...")
(cx-gui-do cx-set-toggle-button2 "Particle Tracks*Table2*Frame1*Frame1*ToggleBox1(Options)*CheckButton3(Draw Mesh)" #t)
(cx-gui-do cx-activate-item "Particle Tracks*Table2*Frame1*Frame1*ToggleBox1(Options)*CheckButton3(Draw Mesh)")
(cx-gui-do cx-activate-item "Mesh Display*PanelButtons*PushButton1(OK)")
(cx-gui-do cx-activate-item "Mesh Display*PanelButtons*PushButton2(Cancel)")
(cx-gui-do cx-set-list-selections "Particle Tracks*Frame3*Table1*DropDownList2" '( 14))
(cx-gui-do cx-activate-item "Particle Tracks*Frame3*Table1*DropDownList2")
(cx-gui-do cx-set-list-selections "Particle Tracks*Frame3*List5(Release from Injections)" '( 1))
(cx-gui-do cx-activate-item "Particle Tracks*Frame3*List5(Release from Injections)")
(cx-gui-do cx-set-list-selections "Particle Tracks*Frame3*List5(Release from Injections)" '( 0 1))
(cx-gui-do cx-activate-item "Particle Tracks*Frame3*List5(Release from Injections)")
(cx-gui-do cx-activate-item "Particle Tracks*PanelButtons*PushButton1(OK)")


DPM Iteration ....
number tracked = 1121, escaped = 1121
(cx-gui-do cx-activate-item "ToolBar*View*autoscale")
(cx-gui-do cx-activate-item "MenuBar*WriteSubMenu*Case & Data...")
(cx-gui-do cx-set-file-dialog-entries "Select File" '( "fluent110.1hhkk.cas.h5") "CFF Case/Data Files (*.cas.h5 *.dat.h5 )")

Writing to PS2019FGRGYSDY:"D:/icem/chongxin/zuixin/fluent110.1hhkk.cas.h5" in NODE0 mode and compression level 1 ...
  Writing mesh ...
       36602 cells,     6 zones ...
       58951 faces,    21 zones ...
       20959 nodes,     1 zone  ...
  Done.
Done.

Writing to PS2019FGRGYSDY:"D:/icem/chongxin/zuixin/fluent110.1hhkk.dat.h5" in NODE0 mode and compression level 1 ...
  Writing results.
Done.
(cx-gui-do cx-activate-item "Particle Tracks*PanelButtons*PushButton2(Cancel)")
/exit y
